<?xml version="1.0" encoding="UTF-8"?>

<!-- generated on 2024-01-14 18:32:35 by Eclipse SUMO netedit Version 1.19.0
<configuration xmlns:xsi="http://www.w3.org/2001/XMLSchema-instance" xsi:noNamespaceSchemaLocation="http://sumo.dlr.de/xsd/neteditConfiguration.xsd">

    <input>
        <sumo-net-file value="/home/citiai-cygnus/sumo-rl/nets/SUMO3/MODIFIEDCOPY.net.xml"/>
    </input>

    <output>
        <output-file value="/home/citiai-cygnus/sumo-rl/nets/SUMO3/MODIFIEDCOPY.net.xml"/>
    </output>

    <processing>
        <geometry.min-radius.fix.railways value="false"/>
        <geometry.max-grade.fix value="false"/>
        <offset.disable-normalization value="true"/>
        <lefthand value="0"/>
    </processing>

    <junctions>
        <no-turnarounds value="true"/>
        <junctions.corner-detail value="5"/>
        <junctions.limit-turn-speed value="5.50"/>
        <rectangular-lane-cut value="0"/>
    </junctions>

    <pedestrian>
        <walkingareas value="0"/>
    </pedestrian>

</configuration>
-->

<net version="1.16" junctionCornerDetail="5" limitTurnSpeed="5.50" xmlns:xsi="http://www.w3.org/2001/XMLSchema-instance" xsi:noNamespaceSchemaLocation="http://sumo.dlr.de/xsd/net_file.xsd">

    <location netOffset="0.00,0.00" convBoundary="-500.36,-1418.17,-36.90,391.85" origBoundary="-10000000000.00,-10000000000.00,10000000000.00,10000000000.00" projParameter="!"/>

    <type id="edgeType_0" priority="-1" numLanes="3" speed="13.89"/>
    <type id="edgeType_1"/>

    <edge id=":J2_0" function="internal">
        <lane id=":J2_0_0" index="0" speed="6.44" length="9.19" shape="-248.20,-977.09 -250.77,-976.93 -252.63,-976.00 -253.76,-974.31 -254.18,-971.84"/>
    </edge>
    <edge id=":J2_1" function="internal">
        <lane id=":J2_1_0" index="0" speed="13.89" length="43.78" shape="-248.20,-977.09 -258.51,-978.09 -271.84,-979.53 -284.24,-980.79 -291.75,-981.26"/>
        <lane id=":J2_1_1" index="1" speed="13.89" length="43.78" shape="-247.96,-980.29 -258.31,-980.78 -271.72,-981.12 -284.20,-981.29 -291.75,-981.26"/>
    </edge>
    <edge id=":J2_3" function="internal">
        <lane id=":J2_3_0" index="0" speed="12.29" length="9.02" shape="-247.96,-980.29 -256.91,-981.41"/>
    </edge>
    <edge id=":J2_16" function="internal">
        <lane id=":J2_16_0" index="0" speed="12.29" length="23.70" shape="-256.91,-981.41 -260.24,-981.83 -269.02,-984.37 -274.31,-987.89 -276.09,-992.41"/>
    </edge>
    <edge id=":J2_4" function="internal">
        <lane id=":J2_4_0" index="0" speed="6.55" length="8.96" shape="-252.76,-992.55 -252.53,-990.13 -251.57,-988.35 -249.89,-987.19 -247.48,-986.67"/>
    </edge>
    <edge id=":J2_5" function="internal">
        <lane id=":J2_5_0" index="0" speed="13.89" length="20.67" shape="-252.76,-992.55 -254.18,-971.84"/>
        <lane id=":J2_5_1" index="1" speed="13.89" length="20.67" shape="-255.97,-992.53 -257.38,-971.91"/>
        <lane id=":J2_5_2" index="2" speed="13.89" length="20.67" shape="-259.17,-992.51 -260.57,-971.97"/>
    </edge>
    <edge id=":J2_8" function="internal">
        <lane id=":J2_8_0" index="0" speed="8.00" length="13.85" shape="-291.86,-984.46 -287.74,-985.08 -284.81,-986.60 -283.06,-989.03 -282.49,-992.37"/>
    </edge>
    <edge id=":J2_9" function="internal">
        <lane id=":J2_9_0" index="0" speed="13.89" length="44.31" shape="-291.86,-984.46 -284.22,-984.99 -271.54,-985.91 -257.92,-986.66 -247.48,-986.67"/>
        <lane id=":J2_9_1" index="1" speed="13.89" length="44.31" shape="-291.86,-984.46 -284.26,-984.49 -271.66,-984.32 -258.12,-983.97 -247.72,-983.48"/>
    </edge>
    <edge id=":J2_11" function="internal">
        <lane id=":J2_11_0" index="0" speed="7.21" length="11.80" shape="-286.25,-972.46 -286.52,-976.38 -287.53,-979.16 -289.27,-980.79 -291.75,-981.26"/>
    </edge>
    <edge id=":J2_12" function="internal">
        <lane id=":J2_12_0" index="0" speed="13.89" length="20.06" shape="-283.05,-972.39 -282.49,-992.37"/>
        <lane id=":J2_12_1" index="1" speed="13.89" length="20.06" shape="-279.85,-972.33 -279.29,-992.39"/>
        <lane id=":J2_12_2" index="2" speed="13.89" length="20.06" shape="-276.65,-972.27 -276.09,-992.41"/>
    </edge>
    <edge id=":J2_15" function="internal">
        <lane id=":J2_15_0" index="0" speed="13.89" length="18.78" shape="-271.44,-973.77 -269.43,-992.45"/>
    </edge>
    <edge id=":J27_0" function="internal">
        <lane id=":J27_0_0" index="0" speed="13.89" length="24.27" shape="-292.59,-28.05 -292.49,-52.32"/>
        <lane id=":J27_0_1" index="1" speed="13.89" length="24.27" shape="-289.39,-28.03 -289.29,-52.30"/>
        <lane id=":J27_0_2" index="2" speed="13.89" length="24.27" shape="-286.19,-28.02 -286.09,-52.29"/>
        <lane id=":J27_0_3" index="3" speed="13.89" length="24.27" shape="-282.99,-28.01 -282.89,-52.27"/>
    </edge>
    <edge id=":J27_4" function="internal">
        <lane id=":J27_4_0" index="0" speed="10.84" length="27.31" shape="-282.99,-28.01 -281.39,-30.55 -276.61,-32.30 -268.63,-33.25 -257.45,-33.39"/>
    </edge>
    <edge id=":J27_5" function="internal">
        <lane id=":J27_5_0" index="0" speed="7.43" length="11.98" shape="-262.76,-52.16 -262.45,-48.19 -261.43,-45.34 -259.70,-43.60 -257.26,-42.99"/>
    </edge>
    <edge id=":J27_6" function="internal">
        <lane id=":J27_6_0" index="0" speed="13.89" length="24.26" shape="-265.96,-52.18 -265.61,-27.93"/>
        <lane id=":J27_6_1" index="1" speed="13.89" length="24.26" shape="-269.16,-52.20 -268.81,-27.94"/>
        <lane id=":J27_6_2" index="2" speed="13.89" length="24.26" shape="-272.36,-52.21 -272.01,-27.96"/>
        <lane id=":J27_6_3" index="3" speed="13.89" length="24.26" shape="-275.56,-52.23 -275.21,-27.97"/>
        <lane id=":J27_6_4" index="4" speed="13.89" length="24.26" shape="-278.76,-52.25 -278.41,-27.99"/>
    </edge>
    <edge id=":J27_11" function="internal">
        <lane id=":J27_11_0" index="0" speed="6.51" length="9.03" shape="-298.12,-46.75 -295.67,-47.09 -293.91,-48.13 -292.85,-49.87 -292.49,-52.32"/>
        <lane id=":J27_11_1" index="1" speed="7.33" length="11.73" shape="-298.12,-46.75 -294.27,-47.08 -291.51,-48.12 -289.85,-49.86 -289.29,-52.30"/>
        <lane id=":J27_11_2" index="2" speed="8.67" length="16.85" shape="-298.14,-43.55 -292.88,-44.07 -289.12,-45.70 -286.86,-48.44 -286.09,-52.29"/>
    </edge>
    <edge id=":J27_14" function="internal">
        <lane id=":J27_14_0" index="0" speed="13.89" length="40.80" shape="-298.15,-40.35 -257.33,-39.79"/>
        <lane id=":J27_14_1" index="1" speed="13.89" length="40.80" shape="-298.17,-37.15 -257.39,-36.59"/>
    </edge>
    <edge id=":J27_16" function="internal">
        <lane id=":J27_16_0" index="0" speed="10.46" length="24.97" shape="-298.18,-33.95 -288.12,-33.53 -280.94,-32.40 -276.63,-30.55 -275.21,-27.97"/>
        <lane id=":J27_16_1" index="1" speed="9.83" length="21.95" shape="-298.18,-33.95 -289.52,-33.54 -283.34,-32.41 -279.63,-30.56 -278.41,-27.99"/>
    </edge>
    <edge id=":J31_0" function="internal">
        <lane id=":J31_0_0" index="0" speed="7.73" length="12.72" shape="-277.56,-533.53 -280.26,-534.25 -282.17,-536.09 -283.31,-539.05 -283.67,-543.14"/>
        <lane id=":J31_0_1" index="1" speed="7.13" length="10.65" shape="-277.56,-533.53 -278.86,-534.18 -279.77,-536.00 -280.31,-538.98 -280.47,-543.12"/>
    </edge>
    <edge id=":J31_2" function="internal">
        <lane id=":J31_2_0" index="0" speed="13.89" length="12.20" shape="-290.42,-531.29 -290.07,-543.18"/>
        <lane id=":J31_2_1" index="1" speed="13.89" length="12.20" shape="-287.23,-531.06 -286.87,-543.16"/>
        <lane id=":J31_2_2" index="2" speed="13.89" length="12.20" shape="-284.03,-530.84 -283.67,-543.14"/>
        <lane id=":J31_2_3" index="3" speed="13.89" length="12.20" shape="-280.84,-530.62 -280.47,-543.12"/>
    </edge>
    <edge id=":J31_6" function="internal">
        <lane id=":J31_6_0" index="0" speed="7.05" length="10.62" shape="-280.84,-530.62 -280.37,-534.75 -279.61,-537.67 -278.56,-539.40 -277.23,-539.92"/>
        <lane id=":J31_6_1" index="1" speed="6.10" length="7.71" shape="-280.84,-530.62 -280.46,-533.35 -279.76,-535.28 -278.74,-536.40 -277.39,-536.72"/>
    </edge>
    <edge id=":J34_0" function="internal">
        <lane id=":J34_0_0" index="0" speed="6.50" length="9.03" shape="-258.18,127.55 -260.64,127.89 -262.39,128.93 -263.45,130.67 -263.80,133.12"/>
        <lane id=":J34_0_1" index="1" speed="7.99" length="14.21" shape="-258.16,124.35 -262.02,124.88 -264.78,126.52 -266.44,129.26 -267.00,133.12"/>
    </edge>
    <edge id=":J34_2" function="internal">
        <lane id=":J34_2_0" index="0" speed="13.89" length="40.05" shape="-258.14,121.15 -298.19,120.92"/>
        <lane id=":J34_2_1" index="1" speed="13.89" length="40.05" shape="-258.12,117.95 -298.18,117.72"/>
    </edge>
    <edge id=":J34_4" function="internal">
        <lane id=":J34_4_0" index="0" speed="11.40" length="29.70" shape="-258.12,117.95 -270.39,117.52 -279.16,116.41 -284.42,114.61 -286.17,112.14"/>
        <lane id=":J34_4_1" index="1" speed="10.81" length="26.65" shape="-258.12,117.95 -268.99,117.53 -276.76,116.42 -281.42,114.62 -282.97,112.14"/>
    </edge>
    <edge id=":J34_6" function="internal">
        <lane id=":J34_6_0" index="0" speed="13.89" length="21.13" shape="-266.22,112.14 -265.86,118.39 -265.02,122.63 -264.18,126.87 -263.80,133.12"/>
        <lane id=":J34_6_1" index="1" speed="13.89" length="21.13" shape="-269.42,112.14 -269.06,118.39 -268.22,122.63 -267.38,126.87 -267.00,133.12"/>
        <lane id=":J34_6_2" index="2" speed="13.89" length="21.13" shape="-272.62,112.14 -272.26,118.38 -271.42,122.63 -270.58,126.87 -270.20,133.11"/>
        <lane id=":J34_6_3" index="3" speed="13.89" length="21.13" shape="-275.82,112.14 -275.46,118.38 -274.62,122.62 -273.78,126.86 -273.40,133.11"/>
        <lane id=":J34_6_4" index="4" speed="13.89" length="21.13" shape="-279.02,112.14 -278.66,118.38 -277.82,122.62 -276.98,126.86 -276.60,133.10"/>
        <lane id=":J34_6_5" index="5" speed="13.89" length="21.13" shape="-279.02,112.14 -279.80,133.09"/>
    </edge>
    <edge id=":J34_12" function="internal">
        <lane id=":J34_12_0" index="0" speed="9.67" length="21.21" shape="-279.02,112.14 -280.23,114.62 -283.82,116.37 -289.81,117.41 -298.18,117.72"/>
    </edge>
    <edge id=":J34_13" function="internal">
        <lane id=":J34_13_0" index="0" speed="6.55" length="9.16" shape="-292.60,133.07 -292.95,130.56 -294.00,128.77 -295.76,127.69 -298.22,127.32"/>
        <lane id=":J34_13_1" index="1" speed="7.37" length="11.85" shape="-292.60,133.07 -292.95,129.16 -293.99,126.37 -295.75,124.69 -298.21,124.12"/>
    </edge>
    <edge id=":J34_15" function="internal">
        <lane id=":J34_15_0" index="0" speed="13.89" length="20.94" shape="-292.60,133.07 -292.57,112.14"/>
        <lane id=":J34_15_1" index="1" speed="13.89" length="20.94" shape="-289.40,133.08 -289.37,112.14"/>
        <lane id=":J34_15_2" index="2" speed="13.89" length="20.94" shape="-286.20,133.08 -286.17,112.14"/>
        <lane id=":J34_15_3" index="3" speed="13.89" length="20.94" shape="-283.00,133.09 -282.97,112.14"/>
    </edge>
    <edge id=":J36_0" function="internal">
        <lane id=":J36_0_0" index="0" speed="6.52" length="9.12" shape="-254.95,-300.73 -257.46,-300.42 -259.25,-299.40 -260.34,-297.66 -260.72,-295.21"/>
        <lane id=":J36_0_1" index="1" speed="7.33" length="11.84" shape="-254.95,-300.73 -258.85,-300.44 -261.65,-299.43 -263.34,-297.70 -263.92,-295.24"/>
        <lane id=":J36_0_2" index="2" speed="8.11" length="14.70" shape="-254.95,-300.73 -260.25,-300.47 -264.05,-299.47 -266.34,-297.73 -267.12,-295.27"/>
    </edge>
    <edge id=":J36_3" function="internal">
        <lane id=":J36_3_0" index="0" speed="13.89" length="41.85" shape="-254.95,-300.73 -296.80,-301.14"/>
    </edge>
    <edge id=":J36_4" function="internal">
        <lane id=":J36_4_0" index="0" speed="11.51" length="11.98" shape="-254.95,-300.73 -266.60,-301.48 -266.89,-301.54"/>
    </edge>
    <edge id=":J36_21" function="internal">
        <lane id=":J36_21_0" index="0" speed="11.51" length="18.14" shape="-266.89,-301.54 -274.92,-303.26 -279.91,-306.08 -281.57,-309.93"/>
    </edge>
    <edge id=":J36_5" function="internal">
        <lane id=":J36_5_0" index="0" speed="6.60" length="9.27" shape="-260.41,-309.91 -260.10,-307.33 -259.07,-305.47 -257.33,-304.34 -254.89,-303.93"/>
    </edge>
    <edge id=":J36_6" function="internal">
        <lane id=":J36_6_0" index="0" speed="13.89" length="14.64" shape="-260.41,-309.91 -260.72,-295.21"/>
        <lane id=":J36_6_1" index="1" speed="13.89" length="14.64" shape="-263.61,-309.91 -263.92,-295.24"/>
        <lane id=":J36_6_2" index="2" speed="13.89" length="14.64" shape="-266.82,-309.92 -267.12,-295.27"/>
        <lane id=":J36_6_3" index="3" speed="13.89" length="14.64" shape="-270.02,-309.92 -270.32,-295.29"/>
        <lane id=":J36_6_4" index="4" speed="13.89" length="14.64" shape="-273.22,-309.92 -273.52,-295.32"/>
        <lane id=":J36_6_5" index="5" speed="13.89" length="14.64" shape="-276.42,-309.93 -276.72,-295.35"/>
    </edge>
    <edge id=":J36_12" function="internal">
        <lane id=":J36_12_0" index="0" speed="6.52" length="9.05" shape="-296.80,-304.34 -294.34,-304.70 -292.58,-305.75 -291.53,-307.50 -291.17,-309.95"/>
    </edge>
    <edge id=":J36_13" function="internal">
        <lane id=":J36_13_0" index="0" speed="13.89" length="41.91" shape="-296.80,-304.34 -254.89,-303.93"/>
    </edge>
    <edge id=":J36_14" function="internal">
        <lane id=":J36_14_0" index="0" speed="10.84" length="11.31" shape="-296.80,-304.34 -286.59,-303.79 -285.54,-303.55"/>
        <lane id=":J36_14_1" index="1" speed="10.26" length="9.70" shape="-296.80,-304.34 -287.99,-303.79 -287.15,-303.57"/>
    </edge>
    <edge id=":J36_22" function="internal">
        <lane id=":J36_22_0" index="0" speed="10.84" length="15.80" shape="-285.54,-303.55 -279.30,-302.10 -274.94,-299.28 -273.52,-295.32"/>
    </edge>
    <edge id=":J36_23" function="internal">
        <lane id=":J36_23_0" index="0" speed="10.26" length="14.46" shape="-287.15,-303.57 -281.70,-302.10 -277.94,-299.29 -276.72,-295.35"/>
    </edge>
    <edge id=":J36_16" function="internal">
        <lane id=":J36_16_0" index="0" speed="6.51" length="9.09" shape="-291.22,-295.47 -291.56,-297.95 -292.60,-299.73 -294.35,-300.79 -296.80,-301.14"/>
    </edge>
    <edge id=":J36_17" function="internal">
        <lane id=":J36_17_0" index="0" speed="13.89" length="14.51" shape="-291.22,-295.47 -291.17,-309.95"/>
        <lane id=":J36_17_1" index="1" speed="13.89" length="14.51" shape="-288.02,-295.44 -287.97,-309.94"/>
        <lane id=":J36_17_2" index="2" speed="13.89" length="14.51" shape="-284.82,-295.42 -284.77,-309.94"/>
        <lane id=":J36_17_3" index="3" speed="13.89" length="14.51" shape="-281.62,-295.39 -281.57,-309.93"/>
    </edge>
    <edge id=":J38_0" function="internal">
        <lane id=":J38_0_0" index="0" speed="6.60" length="9.03" shape="-253.23,-529.43 -255.67,-529.09 -257.44,-528.05 -258.55,-526.33 -259.00,-523.91"/>
    </edge>
    <edge id=":J38_1" function="internal">
        <lane id=":J38_1_0" index="0" speed="13.89" length="18.95" shape="-253.23,-532.63 -272.16,-533.25"/>
    </edge>
    <edge id=":J38_2" function="internal">
        <lane id=":J38_2_0" index="0" speed="6.81" length="10.04" shape="-259.72,-544.96 -259.33,-542.37 -258.12,-540.52 -256.08,-539.41 -253.22,-539.03"/>
    </edge>
    <edge id=":J38_3" function="internal">
        <lane id=":J38_3_0" index="0" speed="13.89" length="20.96" shape="-259.72,-544.96 -259.00,-523.91"/>
        <lane id=":J38_3_1" index="1" speed="13.89" length="20.96" shape="-262.92,-544.99 -262.20,-524.04"/>
        <lane id=":J38_3_2" index="2" speed="13.89" length="20.96" shape="-266.12,-545.01 -265.39,-524.18"/>
    </edge>
    <edge id=":J38_6" function="internal">
        <lane id=":J38_6_0" index="0" speed="8.02" length="14.71" shape="-266.12,-545.01 -266.54,-539.75 -267.68,-536.04 -269.56,-533.87 -272.16,-533.25"/>
    </edge>
    <edge id=":J38_7" function="internal">
        <lane id=":J38_7_0" index="0" speed="13.89" length="18.62" shape="-271.83,-539.64 -253.22,-539.03"/>
    </edge>
    <edge id=":J38_8" function="internal">
        <lane id=":J38_8_0" index="0" speed="9.58" length="8.61" shape="-271.83,-539.64 -267.38,-538.46 -264.50,-535.68"/>
    </edge>
    <edge id=":J38_9" function="internal">
        <lane id=":J38_9_0" index="0" speed="13.89" length="18.78" shape="-272.00,-536.44 -253.23,-535.83"/>
    </edge>
    <edge id=":J38_10" function="internal">
        <lane id=":J38_10_0" index="0" speed="8.39" length="2.90" shape="-272.00,-536.44 -269.21,-535.62"/>
    </edge>
    <edge id=":J38_11" function="internal">
        <lane id=":J38_11_0" index="0" speed="9.58" length="12.04" shape="-264.50,-535.68 -264.29,-535.47 -262.56,-530.67 -262.20,-524.04"/>
    </edge>
    <edge id=":J38_12" function="internal">
        <lane id=":J38_12_0" index="0" speed="8.39" length="12.67" shape="-269.21,-535.62 -268.92,-535.54 -266.79,-533.19 -265.62,-529.40 -265.39,-524.18"/>
    </edge>
    <edge id=":J4_0" function="internal">
        <lane id=":J4_0_0" index="0" speed="13.89" length="46.64" shape="-287.53,-908.74 -286.60,-955.43"/>
        <lane id=":J4_0_1" index="1" speed="13.89" length="46.64" shape="-284.33,-908.72 -283.40,-955.37"/>
        <lane id=":J4_0_2" index="2" speed="13.89" length="46.64" shape="-281.13,-908.69 -280.20,-955.30"/>
        <lane id=":J4_0_3" index="3" speed="13.89" length="46.64" shape="-277.93,-908.66 -277.00,-955.23"/>
    </edge>
    <edge id=":J4_4" function="internal">
        <lane id=":J4_4_0" index="0" speed="13.89" length="46.60" shape="-277.93,-908.66 -277.23,-923.64 -275.83,-937.47 -274.37,-948.48 -273.48,-955.01"/>
    </edge>
    <edge id=":J40_0" function="internal">
        <lane id=":J40_0_0" index="0" speed="6.82" length="10.43" shape="-275.32,-828.83 -278.18,-829.11 -280.22,-830.25 -281.43,-832.24 -281.82,-835.10"/>
        <lane id=":J40_0_1" index="1" speed="6.03" length="7.91" shape="-275.32,-828.83 -276.78,-829.16 -277.82,-830.31 -278.43,-832.28 -278.62,-835.07"/>
    </edge>
    <edge id=":J40_2" function="internal">
        <lane id=":J40_2_0" index="0" speed="13.89" length="9.43" shape="-288.29,-825.72 -288.22,-835.16"/>
        <lane id=":J40_2_1" index="1" speed="13.89" length="9.43" shape="-285.09,-825.70 -285.02,-835.13"/>
        <lane id=":J40_2_2" index="2" speed="13.89" length="9.43" shape="-281.89,-825.68 -281.82,-835.10"/>
        <lane id=":J40_2_3" index="3" speed="13.89" length="9.43" shape="-278.69,-825.66 -278.62,-835.07"/>
    </edge>
    <edge id=":J40_6" function="internal">
        <lane id=":J40_6_0" index="0" speed="6.22" length="7.85" shape="-278.69,-825.66 -278.47,-828.39 -277.86,-830.36 -276.86,-831.57 -275.46,-832.02"/>
    </edge>
    <edge id=":J42_0" function="internal">
        <lane id=":J42_0_0" index="0" speed="13.89" length="9.21" shape="-290.92,-516.23 -290.80,-525.72"/>
        <lane id=":J42_0_1" index="1" speed="13.89" length="9.21" shape="-287.72,-516.20 -287.61,-525.50"/>
        <lane id=":J42_0_2" index="2" speed="13.89" length="9.21" shape="-284.52,-516.16 -284.42,-525.28"/>
        <lane id=":J42_0_3" index="3" speed="13.89" length="9.21" shape="-281.32,-516.12 -281.23,-525.06"/>
    </edge>
    <edge id=":J42_4" function="internal">
        <lane id=":J42_4_0" index="0" speed="13.89" length="8.07" shape="-259.02,-523.52 -258.92,-521.23 -258.55,-519.68 -258.15,-518.13 -257.99,-515.85"/>
        <lane id=":J42_4_1" index="1" speed="13.89" length="8.07" shape="-259.02,-523.52 -259.42,-521.21 -260.15,-519.70 -260.85,-518.19 -261.19,-515.88"/>
        <lane id=":J42_4_2" index="2" speed="13.89" length="8.07" shape="-262.21,-523.74 -262.11,-521.40 -261.74,-519.81 -261.35,-518.23 -261.19,-515.88"/>
        <lane id=":J42_4_3" index="3" speed="13.89" length="8.07" shape="-262.21,-523.74 -262.62,-521.38 -263.35,-519.83 -264.05,-518.29 -264.39,-515.92"/>
        <lane id=":J42_4_4" index="4" speed="13.89" length="8.07" shape="-265.40,-523.96 -265.31,-521.57 -264.94,-519.94 -264.55,-518.32 -264.39,-515.92"/>
        <lane id=":J42_4_5" index="5" speed="13.89" length="8.07" shape="-265.40,-523.96 -265.81,-521.55 -266.54,-519.96 -267.25,-518.38 -267.59,-515.96"/>
    </edge>
    <edge id=":J43_0" function="internal">
        <lane id=":J43_0_0" index="0" speed="13.89" length="10.37" shape="-256.76,-836.13 -257.23,-825.80"/>
        <lane id=":J43_0_1" index="1" speed="13.89" length="10.37" shape="-259.96,-836.19 -260.43,-825.83"/>
        <lane id=":J43_0_2" index="2" speed="13.89" length="10.37" shape="-263.16,-836.25 -263.63,-825.86"/>
    </edge>
    <edge id=":J43_3" function="internal">
        <lane id=":J43_3_0" index="0" speed="6.54" length="8.68" shape="-263.16,-836.25 -263.44,-833.23 -264.13,-831.05 -265.25,-829.71 -266.78,-829.21"/>
    </edge>
    <edge id=":J43_4" function="internal">
        <lane id=":J43_4_0" index="0" speed="6.89" length="10.68" shape="-266.93,-832.41 -264.06,-832.11 -262.02,-830.91 -260.81,-828.82 -260.43,-825.83"/>
        <lane id=":J43_4_1" index="1" speed="6.12" length="8.19" shape="-266.93,-832.41 -265.46,-832.06 -264.43,-830.85 -263.81,-828.78 -263.63,-825.86"/>
    </edge>
    <edge id=":J5_0" function="internal">
        <lane id=":J5_0_0" index="0" speed="13.89" length="1.50" shape="-271.39,-975.07 -271.45,-973.57"/>
    </edge>
    <edge id=":J51_0" function="internal">
        <lane id=":J51_0_0" index="0" speed="12.60" length="38.37" shape="-235.32,-1344.03 -233.57,-1337.16 -227.83,-1332.38 -218.10,-1329.69 -204.39,-1329.10"/>
    </edge>
    <edge id=":J51_1" function="internal">
        <lane id=":J51_1_0" index="0" speed="13.89" length="28.53" shape="-235.32,-1344.03 -235.55,-1336.04 -235.20,-1330.49 -233.61,-1325.22 -230.13,-1318.10"/>
        <lane id=":J51_1_1" index="1" speed="13.89" length="28.53" shape="-238.52,-1344.13 -238.78,-1335.83 -238.46,-1330.06 -236.86,-1324.58 -233.26,-1317.19"/>
        <lane id=":J51_1_2" index="2" speed="13.89" length="28.53" shape="-241.72,-1344.22 -242.01,-1335.62 -241.72,-1329.62 -240.11,-1323.94 -236.40,-1316.27"/>
        <lane id=":J51_1_3" index="3" speed="13.89" length="28.53" shape="-244.91,-1344.32 -245.24,-1335.41 -244.99,-1329.19 -243.36,-1323.30 -239.54,-1315.35"/>
    </edge>
    <edge id=":J51_5" function="internal">
        <lane id=":J51_5_0" index="0" speed="13.89" length="50.12" shape="-253.28,-1339.60 -239.38,-1336.84 -227.02,-1333.25 -215.56,-1330.20 -204.39,-1329.10"/>
    </edge>
    <edge id=":J51_6" function="internal">
        <lane id=":J51_6_0" index="0" speed="13.89" length="32.70" shape="-253.28,-1339.60 -247.12,-1337.66 -241.21,-1333.43 -235.54,-1326.91 -230.13,-1318.10"/>
    </edge>
    <edge id=":J51_7" function="internal">
        <lane id=":J51_7_0" index="0" speed="13.89" length="49.90" shape="-253.68,-1336.42 -239.71,-1334.16 -227.22,-1331.66 -215.63,-1329.71 -204.39,-1329.10"/>
    </edge>
    <edge id=":J51_8" function="internal">
        <lane id=":J51_8_0" index="0" speed="13.89" length="29.02" shape="-253.68,-1336.42 -248.31,-1334.70 -243.12,-1330.93 -238.10,-1325.09 -233.26,-1317.19"/>
    </edge>
    <edge id=":J51_9" function="internal">
        <lane id=":J51_9_0" index="0" speed="13.89" length="50.39" shape="-254.08,-1333.25 -240.04,-1330.98 -227.37,-1328.47 -215.61,-1326.51 -204.30,-1325.90"/>
    </edge>
    <edge id=":J51_10" function="internal">
        <lane id=":J51_10_0" index="0" speed="13.89" length="25.34" shape="-254.08,-1333.25 -249.50,-1331.75 -245.02,-1328.42 -240.66,-1323.26 -236.40,-1316.27"/>
    </edge>
    <edge id=":J51_11" function="internal">
        <lane id=":J51_11_0" index="0" speed="13.89" length="50.88" shape="-254.48,-1330.07 -240.36,-1327.81 -227.52,-1325.29 -215.60,-1323.32 -204.21,-1322.70"/>
    </edge>
    <edge id=":J51_12" function="internal">
        <lane id=":J51_12_0" index="0" speed="13.26" length="21.66" shape="-254.48,-1330.07 -250.69,-1328.79 -246.93,-1325.91 -243.22,-1321.43 -239.54,-1315.35"/>
    </edge>
    <edge id=":J54_0" function="internal">
        <lane id=":J54_0_0" index="0" speed="9.17" length="19.22" shape="-309.39,-1325.46 -304.24,-1326.26 -300.60,-1328.57 -298.48,-1332.38 -297.88,-1337.69"/>
    </edge>
    <edge id=":J54_1" function="internal">
        <lane id=":J54_1_0" index="0" speed="13.89" length="28.03" shape="-309.39,-1325.46 -301.84,-1326.11 -296.87,-1327.84 -292.15,-1330.59 -285.32,-1334.31"/>
        <lane id=":J54_1_1" index="1" speed="13.89" length="28.03" shape="-309.39,-1325.46 -301.44,-1325.66 -296.00,-1326.41 -290.80,-1328.21 -283.60,-1331.59"/>
        <lane id=":J54_1_2" index="2" speed="13.89" length="28.03" shape="-309.36,-1322.26 -300.89,-1322.48 -295.09,-1323.30 -289.55,-1325.26 -281.88,-1328.86"/>
        <lane id=":J54_1_3" index="3" speed="13.89" length="28.03" shape="-309.33,-1319.06 -300.34,-1319.30 -294.19,-1320.20 -288.31,-1322.30 -280.15,-1326.14"/>
    </edge>
    <edge id=":J54_5" function="internal">
        <lane id=":J54_5_0" index="0" speed="13.89" length="25.59" shape="-304.61,-1313.25 -302.37,-1320.51 -300.11,-1325.36 -298.42,-1330.27 -297.88,-1337.69"/>
    </edge>
    <edge id=":J54_6" function="internal">
        <lane id=":J54_6_0" index="0" speed="13.89" length="29.54" shape="-304.61,-1313.25 -302.33,-1319.49 -298.35,-1325.08 -292.68,-1330.02 -285.32,-1334.31"/>
    </edge>
    <edge id=":J54_7" function="internal">
        <lane id=":J54_7_0" index="0" speed="13.89" length="26.34" shape="-301.48,-1312.56 -299.20,-1320.05 -296.91,-1325.06 -295.21,-1330.12 -294.68,-1337.77"/>
    </edge>
    <edge id=":J54_8" function="internal">
        <lane id=":J54_8_0" index="0" speed="13.89" length="26.99" shape="-301.48,-1312.56 -299.41,-1318.11 -295.74,-1323.12 -290.47,-1327.62 -283.60,-1331.59"/>
    </edge>
    <edge id=":J54_9" function="internal">
        <lane id=":J54_9_0" index="0" speed="13.89" length="27.09" shape="-298.35,-1311.88 -296.02,-1319.59 -293.72,-1324.75 -292.01,-1329.97 -291.48,-1337.85"/>
    </edge>
    <edge id=":J54_10" function="internal">
        <lane id=":J54_10_0" index="0" speed="13.89" length="24.45" shape="-298.35,-1311.88 -296.50,-1316.73 -293.13,-1321.17 -288.26,-1325.22 -281.88,-1328.86"/>
    </edge>
    <edge id=":J54_11" function="internal">
        <lane id=":J54_11_0" index="0" speed="13.89" length="27.04" shape="-295.23,-1311.20 -293.38,-1319.02 -292.15,-1324.41 -291.52,-1329.86 -291.48,-1337.85"/>
    </edge>
    <edge id=":J54_12" function="internal">
        <lane id=":J54_12_0" index="0" speed="13.84" length="21.91" shape="-295.23,-1311.20 -293.58,-1315.35 -290.52,-1319.22 -286.05,-1322.82 -280.15,-1326.14"/>
    </edge>
    <edge id=":J56_0" function="internal">
        <lane id=":J56_0_0" index="0" speed="12.75" length="37.84" shape="-284.07,-1244.90 -285.54,-1255.65 -289.78,-1263.29 -296.80,-1267.81 -306.60,-1269.22"/>
    </edge>
    <edge id=":J56_1" function="internal">
        <lane id=":J56_1_0" index="0" speed="13.89" length="44.76" shape="-280.87,-1244.92 -283.51,-1254.34 -289.64,-1261.90 -296.76,-1270.25 -302.39,-1282.07"/>
        <lane id=":J56_1_1" index="1" speed="13.89" length="44.76" shape="-280.87,-1244.92 -283.08,-1254.64 -288.24,-1262.85 -294.41,-1271.85 -299.60,-1283.96"/>
        <lane id=":J56_1_2" index="2" speed="13.89" length="44.76" shape="-277.67,-1244.94 -279.94,-1254.95 -285.25,-1263.80 -291.55,-1273.45 -296.81,-1285.86"/>
        <lane id=":J56_1_3" index="3" speed="13.89" length="44.76" shape="-277.67,-1244.94 -279.50,-1255.25 -283.85,-1264.75 -289.20,-1275.05 -294.02,-1287.75"/>
    </edge>
    <edge id=":J56_5" function="internal">
        <lane id=":J56_5_0" index="0" speed="13.89" length="39.13" shape="-271.68,-1253.08 -283.09,-1256.51 -290.68,-1262.00 -297.50,-1267.07 -306.60,-1269.22"/>
    </edge>
    <edge id=":J56_6" function="internal">
        <lane id=":J56_6_0" index="0" speed="13.89" length="45.06" shape="-271.68,-1253.08 -282.32,-1255.84 -290.99,-1261.59 -297.68,-1270.33 -302.39,-1282.07"/>
    </edge>
    <edge id=":J56_7" function="internal">
        <lane id=":J56_7_0" index="0" speed="13.89" length="40.13" shape="-270.63,-1256.19 -282.43,-1259.65 -290.37,-1265.18 -297.45,-1270.26 -306.64,-1272.42"/>
    </edge>
    <edge id=":J56_8" function="internal">
        <lane id=":J56_8_0" index="0" speed="13.89" length="42.81" shape="-270.63,-1256.19 -280.63,-1258.81 -288.79,-1264.31 -295.11,-1272.70 -299.60,-1283.96"/>
    </edge>
    <edge id=":J56_9" function="internal">
        <lane id=":J56_9_0" index="0" speed="13.89" length="41.13" shape="-269.58,-1259.29 -281.66,-1262.78 -289.97,-1268.34 -297.36,-1273.45 -306.69,-1275.62"/>
    </edge>
    <edge id=":J56_10" function="internal">
        <lane id=":J56_10_0" index="0" speed="13.89" length="40.56" shape="-269.58,-1259.29 -278.93,-1261.78 -286.58,-1267.04 -292.54,-1275.06 -296.81,-1285.86"/>
    </edge>
    <edge id=":J56_11" function="internal">
        <lane id=":J56_11_0" index="0" speed="13.89" length="40.74" shape="-268.54,-1262.40 -280.78,-1265.40 -289.44,-1269.89 -297.19,-1273.94 -306.69,-1275.62"/>
    </edge>
    <edge id=":J56_12" function="internal">
        <lane id=":J56_12_0" index="0" speed="13.89" length="38.31" shape="-268.54,-1262.40 -277.23,-1264.75 -284.37,-1269.76 -289.97,-1277.43 -294.02,-1287.75"/>
    </edge>
    <edge id=":J60_0" function="internal">
        <lane id=":J60_0_0" index="0" speed="13.89" length="32.03" shape="-200.94,-1279.16 -203.55,-1278.02 -208.29,-1274.01 -215.15,-1267.13 -224.13,-1257.39"/>
    </edge>
    <edge id=":J60_1" function="internal">
        <lane id=":J60_1_0" index="0" speed="13.89" length="37.53" shape="-200.94,-1279.16 -210.86,-1279.83 -219.61,-1277.84 -227.20,-1273.20 -233.62,-1265.91"/>
    </edge>