<?xml version="1.0" encoding="UTF-8"?>

<!-- generated on 2024-01-14 22:47:08 by Eclipse SUMO netedit Version 1.19.0
<configuration xmlns:xsi="http://www.w3.org/2001/XMLSchema-instance" xsi:noNamespaceSchemaLocation="http://sumo.dlr.de/xsd/neteditConfiguration.xsd">

    <input>
        <sumo-net-file value="/home/citiai-cygnus/sumo-rl/nets/SUMO3/MODIFIED.net.xml"/>
    </input>

    <output>
        <output-file value="/home/citiai-cygnus/sumo-rl/nets/SUMO3/MODIFIED.net.xml"/>
    </output>

    <processing>
        <geometry.min-radius.fix.railways value="false"/>
        <geometry.max-grade.fix value="false"/>
        <offset.disable-normalization value="true"/>
        <lefthand value="0"/>
    </processing>

    <junctions>
        <no-turnarounds value="true"/>
        <junctions.corner-detail value="5"/>
        <junctions.limit-turn-speed value="5.50"/>
        <rectangular-lane-cut value="0"/>
    </junctions>

    <pedestrian>
        <walkingareas value="0"/>
    </pedestrian>

</configuration>
-->

<net version="1.16" junctionCornerDetail="5" limitTurnSpeed="5.50" xmlns:xsi="http://www.w3.org/2001/XMLSchema-instance" xsi:noNamespaceSchemaLocation="http://sumo.dlr.de/xsd/net_file.xsd">

    <location netOffset="0.00,0.00" convBoundary="-500.36,-1418.17,-36.90,391.85" origBoundary="-10000000000.00,-10000000000.00,10000000000.00,10000000000.00" projParameter="!"/>

    <type id="edgeType_0" priority="-1" numLanes="3" speed="13.89"/>
    <type id="edgeType_1"/>

    <edge id=":J2_0" function="internal">
        <lane id=":J2_0_0" index="0" speed="6.44" length="9.18" shape="-248.28,-977.10 -250.85,-976.94 -252.70,-976.01 -253.83,-974.31 -254.25,-971.85"/>
    </edge>
    <edge id=":J2_1" function="internal">
        <lane id=":J2_1_0" index="0" speed="13.89" length="43.70" shape="-248.28,-977.10 -258.58,-978.09 -271.88,-979.53 -284.25,-980.79 -291.75,-981.26"/>
        <lane id=":J2_1_1" index="1" speed="13.89" length="43.70" shape="-248.04,-980.29 -258.38,-980.78 -271.76,-981.12 -284.22,-981.29 -291.75,-981.26"/>
    </edge>
    <edge id=":J2_3" function="internal">
        <lane id=":J2_3_0" index="0" speed="12.27" length="8.99" shape="-248.04,-980.29 -256.97,-981.42"/>
    </edge>
    <edge id=":J2_16" function="internal">
        <lane id=":J2_16_0" index="0" speed="12.27" length="23.65" shape="-256.97,-981.42 -260.29,-981.84 -269.05,-984.37 -274.31,-987.90 -276.09,-992.41"/>
    </edge>
    <edge id=":J2_4" function="internal">
        <lane id=":J2_4_0" index="0" speed="6.55" length="8.96" shape="-252.85,-992.55 -252.61,-990.14 -251.66,-988.35 -249.97,-987.20 -247.56,-986.67"/>
    </edge>
    <edge id=":J2_5" function="internal">
        <lane id=":J2_5_0" index="0" speed="13.89" length="20.66" shape="-252.85,-992.55 -254.25,-971.85"/>
        <lane id=":J2_5_1" index="1" speed="13.89" length="20.66" shape="-256.05,-992.54 -257.45,-971.92"/>
        <lane id=":J2_5_2" index="2" speed="13.89" length="20.66" shape="-259.26,-992.52 -260.65,-971.99"/>
    </edge>
    <edge id=":J2_8" function="internal">
        <lane id=":J2_8_0" index="0" speed="8.00" length="13.86" shape="-291.86,-984.46 -287.74,-985.08 -284.81,-986.61 -283.06,-989.04 -282.49,-992.37"/>
    </edge>
    <edge id=":J2_9" function="internal">
        <lane id=":J2_9_0" index="0" speed="13.89" length="44.23" shape="-291.86,-984.46 -284.24,-984.99 -271.58,-985.91 -257.99,-986.67 -247.56,-986.67"/>
        <lane id=":J2_9_1" index="1" speed="13.89" length="44.23" shape="-291.86,-984.46 -284.27,-984.49 -271.70,-984.32 -258.19,-983.98 -247.80,-983.48"/>
    </edge>
    <edge id=":J2_11" function="internal">
        <lane id=":J2_11_0" index="0" speed="7.18" length="11.72" shape="-286.25,-972.54 -286.52,-976.43 -287.53,-979.18 -289.27,-980.79 -291.75,-981.26"/>
    </edge>
    <edge id=":J2_12" function="internal">
        <lane id=":J2_12_0" index="0" speed="13.89" length="20.00" shape="-283.05,-972.47 -282.49,-992.37"/>
        <lane id=":J2_12_1" index="1" speed="13.89" length="20.00" shape="-279.85,-972.40 -279.29,-992.39"/>
        <lane id=":J2_12_2" index="2" speed="13.89" length="20.00" shape="-276.65,-972.34 -276.09,-992.41"/>
    </edge>
    <edge id=":J2_15" function="internal">
        <lane id=":J2_15_0" index="0" speed="13.89" length="18.77" shape="-271.44,-973.80 -269.43,-992.45"/>
    </edge>
    <edge id=":J27_0" function="internal">
        <lane id=":J27_0_0" index="0" speed="13.89" length="24.40" shape="-292.59,-27.89 -292.49,-52.32"/>
        <lane id=":J27_0_1" index="1" speed="13.89" length="24.40" shape="-289.39,-27.89 -289.29,-52.30"/>
        <lane id=":J27_0_2" index="2" speed="13.89" length="24.40" shape="-286.19,-27.89 -286.09,-52.29"/>
        <lane id=":J27_0_3" index="3" speed="13.89" length="24.40" shape="-282.99,-27.90 -282.89,-52.27"/>
    </edge>
    <edge id=":J27_4" function="internal">
        <lane id=":J27_4_0" index="0" speed="7.42" length="11.98" shape="-262.20,-52.16 -261.89,-48.19 -260.87,-45.33 -259.15,-43.59 -256.71,-42.98"/>
    </edge>
    <edge id=":J27_5" function="internal">
        <lane id=":J27_5_0" index="0" speed="13.89" length="24.33" shape="-265.40,-52.18 -264.54,-27.90"/>
        <lane id=":J27_5_1" index="1" speed="13.89" length="24.33" shape="-268.60,-52.19 -267.74,-27.90"/>
        <lane id=":J27_5_2" index="2" speed="13.89" length="24.33" shape="-271.80,-52.21 -270.94,-27.90"/>
        <lane id=":J27_5_3" index="3" speed="13.89" length="24.33" shape="-275.00,-52.23 -274.14,-27.90"/>
        <lane id=":J27_5_4" index="4" speed="13.89" length="24.33" shape="-278.20,-52.24 -277.34,-27.90"/>
    </edge>
    <edge id=":J27_10" function="internal">
        <lane id=":J27_10_0" index="0" speed="6.51" length="9.03" shape="-298.12,-46.75 -295.67,-47.09 -293.91,-48.13 -292.85,-49.87 -292.49,-52.32"/>
        <lane id=":J27_10_1" index="1" speed="7.33" length="11.73" shape="-298.12,-46.75 -294.27,-47.08 -291.51,-48.12 -289.85,-49.86 -289.29,-52.30"/>
        <lane id=":J27_10_2" index="2" speed="8.67" length="16.85" shape="-298.14,-43.55 -292.88,-44.07 -289.12,-45.70 -286.86,-48.44 -286.09,-52.29"/>
    </edge>
    <edge id=":J27_13" function="internal">
        <lane id=":J27_13_0" index="0" speed="13.89" length="41.36" shape="-298.15,-40.35 -256.77,-39.78"/>
        <lane id=":J27_13_1" index="1" speed="13.89" length="41.36" shape="-298.17,-37.15 -256.84,-36.58"/>
    </edge>
    <edge id=":J27_15" function="internal">
        <lane id=":J27_15_0" index="0" speed="10.68" length="26.02" shape="-298.18,-33.95 -287.66,-33.53 -280.15,-32.38 -275.64,-30.50 -274.14,-27.90"/>
        <lane id=":J27_15_1" index="1" speed="10.07" length="22.99" shape="-298.18,-33.95 -289.06,-33.53 -282.55,-32.39 -278.64,-30.51 -277.34,-27.90"/>
    </edge>
    <edge id=":J31_0" function="internal">
        <lane id=":J31_0_0" index="0" speed="13.89" length="12.69" shape="-290.38,-529.55 -290.35,-542.31"/>
        <lane id=":J31_0_1" index="1" speed="13.89" length="12.69" shape="-287.18,-529.57 -287.15,-542.29"/>
        <lane id=":J31_0_2" index="2" speed="13.89" length="12.69" shape="-283.98,-529.60 -283.95,-542.26"/>
        <lane id=":J31_0_3" index="3" speed="13.89" length="12.69" shape="-280.78,-529.62 -280.75,-542.24"/>
    </edge>
    <edge id=":J31_4" function="internal">
        <lane id=":J31_4_0" index="0" speed="7.01" length="10.74" shape="-280.78,-529.62 -280.61,-533.78 -280.03,-536.75 -279.04,-538.53 -277.65,-539.12"/>
        <lane id=":J31_4_1" index="1" speed="6.07" length="7.79" shape="-280.78,-529.62 -280.60,-532.38 -280.02,-534.35 -279.04,-535.53 -277.66,-535.92"/>
    </edge>
    <edge id=":J31_6" function="internal">
        <lane id=":J31_6_0" index="0" speed="7.64" length="12.88" shape="-277.68,-532.72 -280.45,-533.33 -282.42,-535.12 -283.59,-538.10 -283.95,-542.26"/>
        <lane id=":J31_6_1" index="1" speed="7.02" length="10.72" shape="-277.68,-532.72 -279.05,-533.32 -280.02,-535.11 -280.59,-538.08 -280.75,-542.24"/>
    </edge>
    <edge id=":J34_0" function="internal">
        <lane id=":J34_0_0" index="0" speed="6.50" length="9.03" shape="-258.18,127.55 -260.64,127.89 -262.39,128.93 -263.45,130.67 -263.80,133.12"/>
        <lane id=":J34_0_1" index="1" speed="7.99" length="14.21" shape="-258.16,124.35 -262.02,124.88 -264.78,126.52 -266.44,129.26 -267.00,133.12"/>
    </edge>
    <edge id=":J34_2" function="internal">
        <lane id=":J34_2_0" index="0" speed="13.89" length="40.05" shape="-258.14,121.15 -298.19,120.92"/>
        <lane id=":J34_2_1" index="1" speed="13.89" length="40.05" shape="-258.12,117.95 -298.18,117.72"/>
    </edge>
    <edge id=":J34_4" function="internal">
        <lane id=":J34_4_0" index="0" speed="11.40" length="29.70" shape="-258.12,117.95 -270.39,117.52 -279.16,116.41 -284.42,114.61 -286.17,112.14"/>
        <lane id=":J34_4_1" index="1" speed="10.81" length="26.65" shape="-258.12,117.95 -268.99,117.53 -276.76,116.42 -281.42,114.62 -282.97,112.14"/>
    </edge>
    <edge id=":J34_6" function="internal">
        <lane id=":J34_6_0" index="0" speed="13.89" length="21.01" shape="-264.49,112.14 -263.80,133.12"/>
        <lane id=":J34_6_1" index="1" speed="13.89" length="21.01" shape="-267.69,112.14 -267.00,133.12"/>
        <lane id=":J34_6_2" index="2" speed="13.89" length="21.01" shape="-270.89,112.14 -270.20,133.11"/>
        <lane id=":J34_6_3" index="3" speed="13.89" length="21.01" shape="-274.09,112.14 -273.40,133.11"/>
        <lane id=":J34_6_4" index="4" speed="13.89" length="21.01" shape="-277.29,112.14 -276.60,133.10"/>
        <lane id=":J34_6_5" index="5" speed="13.89" length="21.01" shape="-277.29,112.14 -277.68,118.38 -278.54,122.62 -279.40,126.85 -279.80,133.09"/>
    </edge>
    <edge id=":J34_12" function="internal">
        <lane id=":J34_12_0" index="0" speed="10.00" length="22.85" shape="-277.29,112.14 -278.59,114.62 -282.51,116.37 -289.04,117.41 -298.18,117.72"/>
    </edge>
    <edge id=":J34_13" function="internal">
        <lane id=":J34_13_0" index="0" speed="6.55" length="9.16" shape="-292.60,133.07 -292.95,130.56 -294.00,128.77 -295.76,127.69 -298.22,127.32"/>
        <lane id=":J34_13_1" index="1" speed="7.37" length="11.85" shape="-292.60,133.07 -292.95,129.16 -293.99,126.37 -295.75,124.69 -298.21,124.12"/>
    </edge>
    <edge id=":J34_15" function="internal">
        <lane id=":J34_15_0" index="0" speed="13.89" length="20.94" shape="-292.60,133.07 -292.57,112.14"/>
        <lane id=":J34_15_1" index="1" speed="13.89" length="20.94" shape="-289.40,133.08 -289.37,112.14"/>
        <lane id=":J34_15_2" index="2" speed="13.89" length="20.94" shape="-286.20,133.08 -286.17,112.14"/>
        <lane id=":J34_15_3" index="3" speed="13.89" length="20.94" shape="-283.00,133.09 -282.97,112.14"/>
    </edge>
    <edge id=":J36_0" function="internal">
        <lane id=":J36_0_0" index="0" speed="6.49" length="9.03" shape="-254.03,-300.71 -256.48,-300.40 -258.25,-299.38 -259.32,-297.65 -259.69,-295.20"/>
        <lane id=":J36_0_1" index="1" speed="7.31" length="11.74" shape="-254.03,-300.71 -257.88,-300.43 -260.65,-299.42 -262.32,-297.69 -262.89,-295.23"/>
        <lane id=":J36_0_2" index="2" speed="8.09" length="14.59" shape="-254.03,-300.71 -259.28,-300.45 -263.05,-299.45 -265.32,-297.73 -266.09,-295.26"/>
    </edge>
    <edge id=":J36_3" function="internal">
        <lane id=":J36_3_0" index="0" speed="13.89" length="42.78" shape="-254.03,-300.71 -296.80,-301.14"/>
    </edge>
    <edge id=":J36_4" function="internal">
        <lane id=":J36_4_0" index="0" speed="11.65" length="12.40" shape="-254.03,-300.71 -266.08,-301.47 -266.39,-301.53"/>
    </edge>
    <edge id=":J36_21" function="internal">
        <lane id=":J36_21_0" index="0" speed="11.65" length="18.55" shape="-266.39,-301.53 -274.69,-303.25 -279.84,-306.06 -281.55,-309.91"/>
    </edge>
    <edge id=":J36_5" function="internal">
        <lane id=":J36_5_0" index="0" speed="6.78" length="9.84" shape="-260.29,-309.82 -259.91,-307.28 -258.74,-305.44 -256.76,-304.32 -253.97,-303.91"/>
    </edge>
    <edge id=":J36_6" function="internal">
        <lane id=":J36_6_0" index="0" speed="13.89" length="14.59" shape="-260.29,-309.82 -259.69,-295.20"/>
        <lane id=":J36_6_1" index="1" speed="13.89" length="14.59" shape="-263.49,-309.84 -262.89,-295.23"/>
        <lane id=":J36_6_2" index="2" speed="13.89" length="14.59" shape="-266.69,-309.85 -266.09,-295.26"/>
        <lane id=":J36_6_3" index="3" speed="13.89" length="14.59" shape="-269.89,-309.86 -269.29,-295.30"/>
        <lane id=":J36_6_4" index="4" speed="13.89" length="14.59" shape="-273.09,-309.87 -272.49,-295.33"/>
        <lane id=":J36_6_5" index="5" speed="13.89" length="14.59" shape="-276.29,-309.88 -275.69,-295.36"/>
    </edge>
    <edge id=":J36_12" function="internal">
        <lane id=":J36_12_0" index="0" speed="6.53" length="9.06" shape="-296.80,-304.34 -294.34,-304.70 -292.58,-305.75 -291.51,-307.50 -291.15,-309.94"/>
    </edge>
    <edge id=":J36_13" function="internal">
        <lane id=":J36_13_0" index="0" speed="13.89" length="42.83" shape="-296.80,-304.34 -253.97,-303.91"/>
    </edge>
    <edge id=":J36_14" function="internal">
        <lane id=":J36_14_0" index="0" speed="11.01" length="11.85" shape="-296.80,-304.34 -286.13,-303.79 -284.99,-303.54"/>
        <lane id=":J36_14_1" index="1" speed="10.44" length="10.23" shape="-296.80,-304.34 -287.53,-303.79 -286.61,-303.56"/>
    </edge>
    <edge id=":J36_22" function="internal">
        <lane id=":J36_22_0" index="0" speed="11.01" length="16.20" shape="-284.99,-303.54 -278.52,-302.10 -273.98,-299.28 -272.49,-295.33"/>
    </edge>
    <edge id=":J36_23" function="internal">
        <lane id=":J36_23_0" index="0" speed="10.44" length="14.86" shape="-286.61,-303.56 -280.92,-302.11 -276.98,-299.30 -275.69,-295.36"/>
    </edge>
    <edge id=":J36_16" function="internal">
        <lane id=":J36_16_0" index="0" speed="6.50" length="9.05" shape="-291.22,-295.52 -291.56,-297.98 -292.60,-299.74 -294.35,-300.80 -296.80,-301.14"/>
    </edge>
    <edge id=":J36_17" function="internal">
        <lane id=":J36_17_0" index="0" speed="13.89" length="14.45" shape="-291.22,-295.52 -291.15,-309.94"/>
        <lane id=":J36_17_1" index="1" speed="13.89" length="14.45" shape="-288.02,-295.49 -287.95,-309.93"/>
        <lane id=":J36_17_2" index="2" speed="13.89" length="14.45" shape="-284.82,-295.46 -284.75,-309.92"/>
        <lane id=":J36_17_3" index="3" speed="13.89" length="14.45" shape="-281.62,-295.42 -281.55,-309.91"/>
    </edge>
    <edge id=":J38_0" function="internal">
        <lane id=":J38_0_0" index="0" speed="6.54" length="9.03" shape="-253.32,-529.43 -255.76,-529.09 -257.52,-528.04 -258.60,-526.30 -258.99,-523.86"/>
    </edge>
    <edge id=":J38_1" function="internal">
        <lane id=":J38_1_0" index="0" speed="13.89" length="18.08" shape="-253.32,-532.63 -271.39,-532.69"/>
    </edge>
    <edge id=":J38_2" function="internal">
        <lane id=":J38_2_0" index="0" speed="6.61" length="9.39" shape="-259.32,-544.65 -258.96,-542.20 -257.84,-540.44 -255.96,-539.39 -253.31,-539.03"/>
    </edge>
    <edge id=":J38_3" function="internal">
        <lane id=":J38_3_0" index="0" speed="13.89" length="20.76" shape="-259.32,-544.65 -258.99,-523.86"/>
        <lane id=":J38_3_1" index="1" speed="13.89" length="20.76" shape="-262.52,-544.68 -262.19,-523.92"/>
        <lane id=":J38_3_2" index="2" speed="13.89" length="20.76" shape="-265.72,-544.70 -265.39,-523.97"/>
    </edge>
    <edge id=":J38_6" function="internal">
        <lane id=":J38_6_0" index="0" speed="8.12" length="14.60" shape="-265.72,-544.70 -266.11,-539.44 -267.19,-535.68 -268.95,-533.43 -271.39,-532.69"/>
    </edge>
    <edge id=":J38_7" function="internal">
        <lane id=":J38_7_0" index="0" speed="13.89" length="18.05" shape="-271.36,-539.09 -253.31,-539.03"/>
    </edge>
    <edge id=":J38_8" function="internal">
        <lane id=":J38_8_0" index="0" speed="9.35" length="8.12" shape="-271.36,-539.09 -267.25,-538.13 -264.47,-535.40"/>
    </edge>
    <edge id=":J38_9" function="internal">
        <lane id=":J38_9_0" index="0" speed="13.89" length="18.06" shape="-271.38,-535.89 -253.31,-535.83"/>
    </edge>
    <edge id=":J38_10" function="internal">
        <lane id=":J38_10_0" index="0" speed="8.13" length="2.60" shape="-271.38,-535.89 -268.87,-535.19"/>
    </edge>
    <edge id=":J38_11" function="internal">
        <lane id=":J38_11_0" index="0" speed="9.35" length="11.84" shape="-264.47,-535.40 -264.35,-535.28 -262.66,-530.54 -262.19,-523.92"/>
    </edge>
    <edge id=":J38_12" function="internal">
        <lane id=":J38_12_0" index="0" speed="8.13" length="12.22" shape="-268.87,-535.19 -268.68,-535.14 -266.78,-532.90 -265.69,-529.18 -265.39,-523.97"/>
    </edge>
    <edge id=":J4_0" function="internal">
        <lane id=":J4_0_0" index="0" speed="13.89" length="46.64" shape="-287.53,-908.74 -286.60,-955.43"/>
        <lane id=":J4_0_1" index="1" speed="13.89" length="46.64" shape="-284.33,-908.72 -283.40,-955.37"/>
        <lane id=":J4_0_2" index="2" speed="13.89" length="46.64" shape="-281.13,-908.69 -280.20,-955.30"/>
        <lane id=":J4_0_3" index="3" speed="13.89" length="46.64" shape="-277.93,-908.66 -277.00,-955.23"/>
    </edge>
    <edge id=":J4_4" function="internal">
        <lane id=":J4_4_0" index="0" speed="13.89" length="46.60" shape="-277.93,-908.66 -277.23,-923.64 -275.83,-937.47 -274.37,-948.48 -273.48,-955.01"/>
    </edge>
    <edge id=":J40_0" function="internal">
        <lane id=":J40_0_0" index="0" speed="6.82" length="10.43" shape="-275.32,-828.83 -278.18,-829.11 -280.22,-830.25 -281.43,-832.24 -281.82,-835.10"/>
        <lane id=":J40_0_1" index="1" speed="6.03" length="7.91" shape="-275.32,-828.83 -276.78,-829.16 -277.82,-830.31 -278.43,-832.28 -278.62,-835.07"/>
    </edge>
    <edge id=":J40_2" function="internal">
        <lane id=":J40_2_0" index="0" speed="13.89" length="9.42" shape="-288.29,-825.73 -288.22,-835.16"/>
        <lane id=":J40_2_1" index="1" speed="13.89" length="9.42" shape="-285.09,-825.70 -285.02,-835.13"/>
        <lane id=":J40_2_2" index="2" speed="13.89" length="9.42" shape="-281.89,-825.68 -281.82,-835.10"/>
        <lane id=":J40_2_3" index="3" speed="13.89" length="9.42" shape="-278.69,-825.66 -278.62,-835.07"/>
    </edge>
    <edge id=":J40_6" function="internal">
        <lane id=":J40_6_0" index="0" speed="6.22" length="7.85" shape="-278.69,-825.66 -278.48,-828.39 -277.86,-830.36 -276.86,-831.57 -275.46,-832.02"/>
    </edge>
    <edge id=":J42_0" function="internal">
        <lane id=":J42_0_0" index="0" speed="13.89" length="8.56" shape="-258.99,-523.76 -258.88,-521.27 -258.58,-519.57 -258.28,-517.88 -258.16,-515.38"/>
        <lane id=":J42_0_1" index="1" speed="13.89" length="8.56" shape="-258.99,-523.76 -259.38,-521.24 -260.18,-519.59 -260.98,-517.94 -261.36,-515.42"/>
        <lane id=":J42_0_2" index="2" speed="13.89" length="8.56" shape="-262.19,-523.75 -262.08,-521.27 -261.78,-519.58 -261.48,-517.90 -261.36,-515.42"/>
        <lane id=":J42_0_3" index="3" speed="13.89" length="8.56" shape="-262.19,-523.75 -262.58,-521.24 -263.38,-519.60 -264.18,-517.96 -264.56,-515.45"/>
        <lane id=":J42_0_4" index="4" speed="13.89" length="8.56" shape="-265.39,-523.73 -265.28,-521.27 -264.98,-519.59 -264.68,-517.91 -264.56,-515.45"/>
        <lane id=":J42_0_5" index="5" speed="13.89" length="8.56" shape="-265.39,-523.73 -265.78,-521.23 -266.58,-519.61 -267.38,-517.98 -267.76,-515.48"/>
    </edge>
    <edge id=":J42_6" function="internal">
        <lane id=":J42_6_0" index="0" speed="13.89" length="7.92" shape="-290.36,-515.72 -290.33,-523.55"/>
        <lane id=":J42_6_1" index="1" speed="13.89" length="7.92" shape="-287.16,-515.68 -287.13,-523.57"/>
        <lane id=":J42_6_2" index="2" speed="13.89" length="7.92" shape="-283.96,-515.65 -283.93,-523.60"/>
        <lane id=":J42_6_3" index="3" speed="13.89" length="7.92" shape="-280.76,-515.62 -280.73,-523.62"/>
    </edge>
    <edge id=":J43_0" function="internal">
        <lane id=":J43_0_0" index="0" speed="13.89" length="11.20" shape="-257.18,-835.88 -257.06,-824.73"/>
        <lane id=":J43_0_1" index="1" speed="13.89" length="11.20" shape="-260.38,-835.95 -260.26,-824.75"/>
        <lane id=":J43_0_2" index="2" speed="13.89" length="11.20" shape="-263.58,-836.02 -263.46,-824.78"/>
    </edge>
    <edge id=":J43_3" function="internal">
        <lane id=":J43_3_0" index="0" speed="6.33" length="8.07" shape="-263.58,-836.02 -263.82,-833.09 -264.41,-830.98 -265.34,-829.69 -266.61,-829.22"/>
    </edge>
    <edge id=":J43_4" function="internal">
        <lane id=":J43_4_0" index="0" speed="7.15" length="11.56" shape="-266.75,-832.42 -263.89,-832.05 -261.85,-830.65 -260.64,-828.22 -260.26,-824.75"/>
        <lane id=":J43_4_1" index="1" speed="6.43" length="9.16" shape="-266.75,-832.42 -265.29,-832.00 -264.25,-830.58 -263.64,-828.18 -263.46,-824.78"/>
    </edge>
    <edge id=":J5_0" function="internal">
        <lane id=":J5_0_0" index="0" speed="13.89" length="1.47" shape="-271.39,-975.07 -271.45,-973.60"/>
    </edge>
    <edge id=":J51_0" function="internal">
        <lane id=":J51_0_0" index="0" speed="12.60" length="38.37" shape="-235.32,-1344.03 -233.57,-1337.16 -227.83,-1332.38 -218.10,-1329.69 -204.39,-1329.10"/>
    </edge>
    <edge id=":J51_1" function="internal">
        <lane id=":J51_1_0" index="0" speed="13.89" length="28.53" shape="-235.32,-1344.03 -235.55,-1336.04 -235.20,-1330.49 -233.61,-1325.22 -230.13,-1318.10"/>
        <lane id=":J51_1_1" index="1" speed="13.89" length="28.53" shape="-238.52,-1344.13 -238.78,-1335.83 -238.46,-1330.06 -236.86,-1324.58 -233.26,-1317.19"/>
        <lane id=":J51_1_2" index="2" speed="13.89" length="28.53" shape="-241.72,-1344.22 -242.01,-1335.62 -241.72,-1329.62 -240.11,-1323.94 -236.40,-1316.27"/>
        <lane id=":J51_1_3" index="3" speed="13.89" length="28.53" shape="-244.91,-1344.32 -245.24,-1335.41 -244.99,-1329.19 -243.36,-1323.30 -239.54,-1315.35"/>
    </edge>
    <edge id=":J51_5" function="internal">
        <lane id=":J51_5_0" index="0" speed="13.89" length="50.12" shape="-253.28,-1339.60 -239.38,-1336.84 -227.02,-1333.25 -215.56,-1330.20 -204.39,-1329.10"/>
    </edge>
    <edge id=":J51_6" function="internal">
        <lane id=":J51_6_0" index="0" speed="13.89" length="32.70" shape="-253.28,-1339.60 -247.12,-1337.66 -241.21,-1333.43 -235.54,-1326.91 -230.13,-1318.10"/>
    </edge>
    <edge id=":J51_7" function="internal">
        <lane id=":J51_7_0" index="0" speed="13.89" length="49.90" shape="-253.68,-1336.42 -239.71,-1334.16 -227.22,-1331.66 -215.63,-1329.71 -204.39,-1329.10"/>
    </edge>
    <edge id=":J51_8" function="internal">
        <lane id=":J51_8_0" index="0" speed="13.89" length="29.02" shape="-253.68,-1336.42 -248.31,-1334.70 -243.12,-1330.93 -238.10,-1325.09 -233.26,-1317.19"/>
    </edge>
    <edge id=":J51_9" function="internal">
        <lane id=":J51_9_0" index="0" speed="13.89" length="50.39" shape="-254.08,-1333.25 -240.04,-1330.98 -227.37,-1328.47 -215.61,-1326.51 -204.30,-1325.90"/>
    </edge>
    <edge id=":J51_10" function="internal">
        <lane id=":J51_10_0" index="0" speed="13.89" length="25.34" shape="-254.08,-1333.25 -249.50,-1331.75 -245.02,-1328.42 -240.66,-1323.26 -236.40,-1316.27"/>
    </edge>
    <edge id=":J51_11" function="internal">
        <lane id=":J51_11_0" index="0" speed="13.89" length="50.88" shape="-254.48,-1330.07 -240.36,-1327.81 -227.52,-1325.29 -215.60,-1323.32 -204.21,-1322.70"/>
    </edge>
    <edge id=":J51_12" function="internal">
        <lane id=":J51_12_0" index="0" speed="13.26" length="21.66" shape="-254.48,-1330.07 -250.69,-1328.79 -246.93,-1325.91 -243.22,-1321.43 -239.54,-1315.35"/>
    </edge>
    <edge id=":J54_0" function="internal">
        <lane id=":J54_0_0" index="0" speed="9.17" length="19.22" shape="-309.39,-1325.46 -304.24,-1326.26 -300.60,-1328.57 -298.48,-1332.38 -297.88,-1337.69"/>
    </edge>
    <edge id=":J54_1" function="internal">
        <lane id=":J54_1_0" index="0" speed="13.89" length="28.03" shape="-309.39,-1325.46 -301.84,-1326.11 -296.87,-1327.84 -292.15,-1330.59 -285.32,-1334.31"/>
        <lane id=":J54_1_1" index="1" speed="13.89" length="28.03" shape="-309.39,-1325.46 -301.44,-1325.66 -296.00,-1326.41 -290.80,-1328.21 -283.60,-1331.59"/>
        <lane id=":J54_1_2" index="2" speed="13.89" length="28.03" shape="-309.36,-1322.26 -300.89,-1322.48 -295.09,-1323.30 -289.55,-1325.26 -281.88,-1328.86"/>
        <lane id=":J54_1_3" index="3" speed="13.89" length="28.03" shape="-309.33,-1319.06 -300.34,-1319.30 -294.19,-1320.20 -288.31,-1322.30 -280.15,-1326.14"/>
    </edge>
    <edge id=":J54_5" function="internal">
        <lane id=":J54_5_0" index="0" speed="13.89" length="25.59" shape="-304.61,-1313.25 -302.37,-1320.51 -300.11,-1325.36 -298.42,-1330.27 -297.88,-1337.69"/>
    </edge>
    <edge id=":J54_6" function="internal">
        <lane id=":J54_6_0" index="0" speed="13.89" length="29.54" shape="-304.61,-1313.25 -302.33,-1319.49 -298.35,-1325.08 -292.68,-1330.02 -285.32,-1334.31"/>
    </edge>
    <edge id=":J54_7" function="internal">
        <lane id=":J54_7_0" index="0" speed="13.89" length="26.34" shape="-301.48,-1312.56 -299.20,-1320.05 -296.91,-1325.06 -295.21,-1330.12 -294.68,-1337.77"/>
    </edge>
    <edge id=":J54_8" function="internal">
        <lane id=":J54_8_0" index="0" speed="13.89" length="26.99" shape="-301.48,-1312.56 -299.41,-1318.11 -295.74,-1323.12 -290.47,-1327.62 -283.60,-1331.59"/>
    </edge>
    <edge id=":J54_9" function="internal">
        <lane id=":J54_9_0" index="0" speed="13.89" length="27.09" shape="-298.35,-1311.88 -296.02,-1319.59 -293.72,-1324.75 -292.01,-1329.97 -291.48,-1337.85"/>
    </edge>
    <edge id=":J54_10" function="internal">
        <lane id=":J54_10_0" index="0" speed="13.89" length="24.45" shape="-298.35,-1311.88 -296.50,-1316.73 -293.13,-1321.17 -288.26,-1325.22 -281.88,-1328.86"/>
    </edge>
    <edge id=":J54_11" function="internal">
        <lane id=":J54_11_0" index="0" speed="13.89" length="27.04" shape="-295.23,-1311.20 -293.38,-1319.02 -292.15,-1324.41 -291.52,-1329.86 -291.48,-1337.85"/>
    </edge>
    <edge id=":J54_12" function="internal">
        <lane id=":J54_12_0" index="0" speed="13.84" length="21.91" shape="-295.23,-1311.20 -293.58,-1315.35 -290.52,-1319.22 -286.05,-1322.82 -280.15,-1326.14"/>
    </edge>
    <edge id=":J56_0" function="internal">
        <lane id=":J56_0_0" index="0" speed="12.75" length="37.84" shape="-284.07,-1244.90 -285.54,-1255.65 -289.78,-1263.29 -296.80,-1267.81 -306.60,-1269.22"/>
    </edge>
    <edge id=":J56_1" function="internal">
        <lane id=":J56_1_0" index="0" speed="13.89" length="44.76" shape="-280.87,-1244.92 -283.51,-1254.34 -289.64,-1261.90 -296.76,-1270.25 -302.39,-1282.07"/>
        <lane id=":J56_1_1" index="1" speed="13.89" length="44.76" shape="-280.87,-1244.92 -283.08,-1254.64 -288.24,-1262.85 -294.41,-1271.85 -299.60,-1283.96"/>
        <lane id=":J56_1_2" index="2" speed="13.89" length="44.76" shape="-277.67,-1244.94 -279.94,-1254.95 -285.25,-1263.80 -291.55,-1273.45 -296.81,-1285.86"/>
        <lane id=":J56_1_3" index="3" speed="13.89" length="44.76" shape="-277.67,-1244.94 -279.50,-1255.25 -283.85,-1264.75 -289.20,-1275.05 -294.02,-1287.75"/>
    </edge>
    <edge id=":J56_5" function="internal">
        <lane id=":J56_5_0" index="0" speed="13.89" length="39.13" shape="-271.68,-1253.08 -283.09,-1256.51 -290.68,-1262.00 -297.50,-1267.07 -306.60,-1269.22"/>
    </edge>
    <edge id=":J56_6" function="internal">
        <lane id=":J56_6_0" index="0" speed="13.89" length="45.06" shape="-271.68,-1253.08 -282.32,-1255.84 -290.99,-1261.59 -297.68,-1270.33 -302.39,-1282.07"/>
    </edge>
    <edge id=":J56_7" function="internal">
        <lane id=":J56_7_0" index="0" speed="13.89" length="23.01" shape="-270.63,-1256.19 -282.43,-1259.65 -290.37,-1265.18 -291.21,-1265.78"/>
    </edge>
    <edge id=":J56_8" function="internal">
        <lane id=":J56_8_0" index="0" speed="13.89" length="42.81" shape="-270.63,-1256.19 -280.63,-1258.81 -288.79,-1264.31 -295.11,-1272.70 -299.60,-1283.96"/>
    </edge>
    <edge id=":J56_9" function="internal">
        <lane id=":J56_9_0" index="0" speed="13.89" length="19.90" shape="-269.58,-1259.29 -281.66,-1262.78 -287.75,-1266.86"/>
    </edge>
    <edge id=":J56_10" function="internal">
        <lane id=":J56_10_0" index="0" speed="13.89" length="40.56" shape="-269.58,-1259.29 -278.93,-1261.78 -286.58,-1267.04 -292.54,-1275.06 -296.81,-1285.86"/>
    </edge>
    <edge id=":J56_11" function="internal">
        <lane id=":J56_11_0" index="0" speed="13.89" length="11.17" shape="-268.54,-1262.40 -279.39,-1265.06"/>
    </edge>
    <edge id=":J56_12" function="internal">
        <lane id=":J56_12_0" index="0" speed="13.89" length="38.31" shape="-268.54,-1262.40 -277.23,-1264.75 -284.37,-1269.76 -289.97,-1277.43 -294.02,-1287.75"/>
    </edge>
    <edge id=":J56_13" function="internal">
        <lane id=":J56_13_0" index="0" speed="13.89" length="17.12" shape="-291.21,-1265.78 -297.45,-1270.26 -306.64,-1272.42"/>
    </edge>
    <edge id=":J56_14" function="internal">
        <lane id=":J56_14_0" index="0" speed="13.89" length="21.23" shape="-287.75,-1266.86 -289.97,-1268.34 -297.36,-1273.45 -306.69,-1275.62"/>
    </edge>
    <edge id=":J56_15" function="internal">
        <lane id=":J56_15_0" index="0" speed="13.89" length="29.57" shape="-279.39,-1265.06 -280.78,-1265.40 -289.44,-1269.89 -297.19,-1273.94 -306.69,-1275.62"/>
    </edge>
    <edge id=":J60_0" function="internal">
        <lane id=":J60_0_0" index="0" speed="13.89" length="33.77" shape="-198.84,-1278.77 -201.59,-1277.63 -206.78,-1273.62 -214.40,-1266.76 -224.45,-1257.04"/>
    </edge>
    <edge id=":J60_1" function="internal">