<?xml version="1.0" encoding="UTF-8"?>

<!-- generated on 2024-01-07 16:00:38 by Eclipse SUMO netedit Version 1.18.0
-->

<routes xmlns:xsi="http://www.w3.org/2001/XMLSchema-instance" xsi:noNamespaceSchemaLocation="http://sumo.dlr.de/xsd/routes_file.xsd">
    <!-- VTypes -->
    <vType id="t_0" emissionClass="HBEFA4/PC_petrol_Euro-4"/>
    <vType id="t_1" emissionClass="HBEFA4/PC_petrol_Euro-5"/>
    <vType id="t_2" emissionClass="HBEFA4/PC_petrol_Euro-6ab"/>
    <!-- Vehicles, persons and containers (sorted by depart) -->
<flow id="f_1" type="t_0" begin="0" color="yellow" from="E12" to="E53.21" end="18000" period="exp(0.0075)"/>
<flow id="f_2" type="t_0" begin="0" color="yellow" from="E13" to="E53.21" end="18000" period="exp(0.0075)"/>
<flow id="f_3" type="t_0" begin="0" color="yellow" from="E19" to="E53.21" end="18000" period="exp(0.0075)"/>
<flow id="f_4" type="t_0" begin="0" color="yellow" from="E22" to="E45" end="18000" period="exp(0.0075)"/>
<flow id="f_5" type="t_0" begin="0" color="yellow" from="E7" to="E45" end="18000" period="exp(0.0075)"/>
<flow id="f_6" type="t_0" begin="0" color="yellow" from="E32" to="E31" end="18000" period="exp(0.0075)"/>
<flow id="f_7" type="t_0" begin="0" color="yellow" from="E24" to="E27" end="18000" period="exp(0.0075)"/>
<flow id="f_8" type="t_0" begin="0" color="yellow" from="E30" to="E28" end="18000" period="exp(0.0075)"/>
<flow id="f_9" type="t_0" begin="0" color="yellow" from="-E3" to="E5" end="18000" period="exp(0.0075)"/>
<flow id="f_10" type="t_0" begin="0" color="yellow" from="-E5" to="E3" end="18000" period="exp(0.0075)"/>
<flow id="f_11" type="t_0" begin="0" color="yellow" from="-E43" to="E40" end="18000" period="exp(0.0075)"/>
<flow id="f_12" type="t_0" begin="0" color="yellow" from="-E26" to="E34" end="18000" period="exp(0.0075)"/>
<flow id="f_13" type="t_0" begin="0" color="yellow" from="-E33" to="E26" end="18000" period="exp(0.0075)"/>
<flow id="f_105" type="t_2" begin="0" color="yellow" from="E12" to="E53.21" end="0" period="exp(0.0075)"/>
<flow id="f_106" type="t_2" begin="0" color="yellow" from="E13" to="E53.21" end="0" period="exp(0.0075)"/>
<flow id="f_107" type="t_2" begin="0" color="yellow" from="E19" to="E53.21" end="0" period="exp(0.0075)"/>
<flow id="f_108" type="t_2" begin="0" color="yellow" from="E22" to="E45" end="0" period="exp(0.0075)"/>
<flow id="f_109" type="t_2" begin="0" color="yellow" from="E7" to="E45" end="0" period="exp(0.0075)"/>
<flow id="f_110" type="t_2" begin="0" color="yellow" from="E32" to="E31" end="0" period="exp(0.0075)"/>
<flow id="f_111" type="t_2" begin="0" color="yellow" from="E24" to="E27" end="0" period="exp(0.0075)"/>
<flow id="f_112" type="t_2" begin="0" color="yellow" from="E30" to="E28" end="0" period="exp(0.0075)"/>
<flow id="f_113" type="t_2" begin="0" color="yellow" from="-E3" to="E5" end="0" period="exp(0.0075)"/>
<flow id="f_114" type="t_2" begin="0" color="yellow" from="-E5" to="E3" end="0" period="exp(0.0075)"/>
<flow id="f_115" type="t_2" begin="0" color="yellow" from="-E43" to="E40" end="0" period="exp(0.0075)"/>
<flow id="f_116" type="t_2" begin="0" color="yellow" from="-E26" to="E34" end="0" period="exp(0.0075)"/>
<flow id="f_117" type="t_2" begin="0" color="yellow" from="-E33" to="E26" end="0" period="exp(0.0075)"/>

<flow id="f_53" type="t_1" begin="0" color="yellow" from="E12" to="E53.21" end="18000" period="exp(0.0075)"/>
<flow id="f_54" type="t_1" begin="0" color="yellow" from="E13" to="E53.21" end="18000" period="exp(0.0075)"/>
<flow id="f_55" type="t_1" begin="0" color="yellow" from="E19" to="E53.21" end="18000" period="exp(0.0075)"/>
<flow id="f_56" type="t_1" begin="0" color="yellow" from="E22" to="E45" end="18000" period="exp(0.0075)"/>
<flow id="f_57" type="t_1" begin="0" color="yellow" from="E7" to="E45" end="18000" period="exp(0.0075)"/>
<flow id="f_58" type="t_1" begin="0" color="yellow" from="E32" to="E31" end="18000" period="exp(0.0075)"/>
<flow id="f_59" type="t_1" begin="0" color="yellow" from="E24" to="E27" end="18000" period="exp(0.0075)"/>
<flow id="f_60" type="t_1" begin="0" color="yellow" from="E30" to="E28" end="18000" period="exp(0.0075)"/>
<flow id="f_61" type="t_1" begin="0" color="yellow" from="-E3" to="E5" end="18000" period="exp(0.0075)"/>
<flow id="f_62" type="t_1" begin="0" color="yellow" from="-E5" to="E3" end="18000" period="exp(0.0075)"/>
<flow id="f_63" type="t_1" begin="0" color="yellow" from="-E43" to="E40" end="18000" period="exp(0.0075)"/>
<flow id="f_64" type="t_1" begin="0" color="yellow" from="-E26" to="E34" end="18000" period="exp(0.0075)"/>
<flow id="f_65" type="t_1" begin="0" color="yellow" from="-E33" to="E26" end="18000" period="exp(0.0075)"/>
<flow id="f_66" type="t_1" begin="18000" color="yellow" from="E12" to="E53.21" end="36000" period="exp(0.0075)"/>
<flow id="f_67" type="t_1" begin="18000" color="yellow" from="E13" to="E53.21" end="36000" period="exp(0.0075)"/>
<flow id="f_68" type="t_1" begin="18000" color="yellow" from="E19" to="E53.21" end="36000" period="exp(0.0075)"/>
<flow id="f_69" type="t_1" begin="18000" color="yellow" from="E22" to="E45" end="36000" period="exp(0.0075)"/>
<flow id="f_70" type="t_1" begin="18000" color="yellow" from="E7" to="E45" end="36000" period="exp(0.0075)"/>
<flow id="f_71" type="t_1" begin="18000" color="yellow" from="E32" to="E31" end="36000" period="exp(0.0075)"/>
<flow id="f_72" type="t_1" begin="18000" color="yellow" from="E24" to="E27" end="36000" period="exp(0.0075)"/>
<flow id="f_73" type="t_1" begin="18000" color="yellow" from="E30" to="E28" end="36000" period="exp(0.0075)"/>
<flow id="f_74" type="t_1" begin="18000" color="yellow" from="-E3" to="E5" end="36000" period="exp(0.0075)"/>
<flow id="f_75" type="t_1" begin="18000" color="yellow" from="-E5" to="E3" end="36000" period="exp(0.0075)"/>
<flow id="f_76" type="t_1" begin="18000" color="yellow" from="-E43" to="E40" end="36000" period="exp(0.0075)"/>
<flow id="f_77" type="t_1" begin="18000" color="yellow" from="-E26" to="E34" end="36000" period="exp(0.0075)"/>
<flow id="f_78" type="t_1" begin="18000" color="yellow" from="-E33" to="E26" end="36000" period="exp(0.0075)"/>


<flow id="f_118" type="t_2" begin="18000" color="yellow" from="E12" to="E53.21" end="36000" period="exp(0.0075)"/>
<flow id="f_119" type="t_2" begin="18000" color="yellow" from="E13" to="E53.21" end="36000" period="exp(0.0075)"/>
<flow id="f_120" type="t_2" begin="18000" color="yellow" from="E19" to="E53.21" end="36000" period="exp(0.0075)"/>
<flow id="f_121" type="t_2" begin="18000" color="yellow" from="E22" to="E45" end="36000" period="exp(0.0075)"/>
<flow id="f_122" type="t_2" begin="18000" color="yellow" from="E7" to="E45" end="36000" period="exp(0.0075)"/>
<flow id="f_123" type="t_2" begin="18000" color="yellow" from="E32" to="E31" end="36000" period="exp(0.0075)"/>
<flow id="f_124" type="t_2" begin="18000" color="yellow" from="E24" to="E27" end="36000" period="exp(0.0075)"/>
<flow id="f_125" type="t_2" begin="18000" color="yellow" from="E30" to="E28" end="36000" period="exp(0.0075)"/>
<flow id="f_126" type="t_2" begin="18000" color="yellow" from="-E3" to="E5" end="36000" period="exp(0.0075)"/>
<flow id="f_127" type="t_2" begin="18000" color="yellow" from="-E5" to="E3" end="36000" period="exp(0.0075)"/>
<flow id="f_128" type="t_2" begin="18000" color="yellow" from="-E43" to="E40" end="36000" period="exp(0.0075)"/>
<flow id="f_129" type="t_2" begin="18000" color="yellow" from="-E26" to="E34" end="36000" period="exp(0.0075)"/>
<flow id="f_130" type="t_2" begin="18000" color="yellow" from="-E33" to="E26" end="36000" period="exp(0.0075)"/>

<flow id="f_14" type="t_0" begin="18000" color="yellow" from="E12" to="E53.21" end="36000" period="exp(0.0075)"/>
<flow id="f_15" type="t_0" begin="18000" color="yellow" from="E13" to="E53.21" end="36000" period="exp(0.0075)"/>
<flow id="f_16" type="t_0" begin="18000" color="yellow" from="E19" to="E53.21" end="36000" period="exp(0.0075)"/>
<flow id="f_17" type="t_0" begin="18000" color="yellow" from="E22" to="E45" end="36000" period="exp(0.0075)"/>
<flow id="f_18" type="t_0" begin="18000" color="yellow" from="E7" to="E45" end="36000" period="exp(0.0075)"/>
<flow id="f_19" type="t_0" begin="18000" color="yellow" from="E32" to="E31" end="36000" period="exp(0.0075)"/>
<flow id="f_20" type="t_0" begin="18000" color="yellow" from="E24" to="E27" end="36000" period="exp(0.0075)"/>
<flow id="f_21" type="t_0" begin="18000" color="yellow" from="E30" to="E28" end="36000" period="exp(0.0075)"/>
<flow id="f_22" type="t_0" begin="18000" color="yellow" from="-E3" to="E5" end="36000" period="exp(0.0075)"/>
<flow id="f_23" type="t_0" begin="18000" color="yellow" from="-E5" to="E3" end="36000" period="exp(0.0075)"/>
<flow id="f_24" type="t_0" begin="18000" color="yellow" from="-E43" to="E40" end="36000" period="exp(0.0075)"/>
<flow id="f_25" type="t_0" begin="18000" color="yellow" from="-E26" to="E34" end="36000" period="exp(0.0075)"/>
<flow id="f_26" type="t_0" begin="18000" color="yellow" from="-E33" to="E26" end="36000" period="exp(0.0075)"/>
<flow id="f_27" type="t_0" begin="36000" color="yellow" from="E12" to="E53.21" end="54000" period="exp(0.0075)"/>
<flow id="f_28" type="t_0" begin="36000" color="yellow" from="E13" to="E53.21" end="54000" period="exp(0.0075)"/>
<flow id="f_29" type="t_0" begin="36000" color="yellow" from="E19" to="E53.21" end="54000" period="exp(0.0075)"/>
<flow id="f_30" type="t_0" begin="36000" color="yellow" from="E22" to="E45" end="54000" period="exp(0.0075)"/>
<flow id="f_31" type="t_0" begin="36000" color="yellow" from="E7" to="E45" end="54000" period="exp(0.0075)"/>
<flow id="f_32" type="t_0" begin="36000" color="yellow" from="E32" to="E31" end="54000" period="exp(0.0075)"/>
<flow id="f_33" type="t_0" begin="36000" color="yellow" from="E24" to="E27" end="54000" period="exp(0.0075)"/>
<flow id="f_34" type="t_0" begin="36000" color="yellow" from="E30" to="E28" end="54000" period="exp(0.0075)"/>
<flow id="f_35" type="t_0" begin="36000" color="yellow" from="-E3" to="E5" end="54000" period="exp(0.0075)"/>
<flow id="f_36" type="t_0" begin="36000" color="yellow" from="-E5" to="E3" end="54000" period="exp(0.0075)"/>
<flow id="f_37" type="t_0" begin="36000" color="yellow" from="-E43" to="E40" end="54000" period="exp(0.0075)"/>
<flow id="f_38" type="t_0" begin="36000" color="yellow" from="-E26" to="E34" end="54000" period="exp(0.0075)"/>
<flow id="f_39" type="t_0" begin="36000" color="yellow" from="-E33" to="E26" end="54000" period="exp(0.0075)"/>
<flow id="f_79" type="t_1" begin="36000" color="yellow" from="E12" to="E53.21" end="54000" period="exp(0.0075)"/>
<flow id="f_80" type="t_1" begin="36000" color="yellow" from="E13" to="E53.21" end="54000" period="exp(0.0075)"/>
<flow id="f_81" type="t_1" begin="36000" color="yellow" from="E19" to="E53.21" end="54000" period="exp(0.0075)"/>
<flow id="f_82" type="t_1" begin="36000" color="yellow" from="E22" to="E45" end="54000" period="exp(0.0075)"/>
<flow id="f_83" type="t_1" begin="36000" color="yellow" from="E7" to="E45" end="54000" period="exp(0.0075)"/>
<flow id="f_84" type="t_1" begin="36000" color="yellow" from="E32" to="E31" end="54000" period="exp(0.0075)"/>
<flow id="f_85" type="t_1" begin="36000" color="yellow" from="E24" to="E27" end="54000" period="exp(0.0075)"/>
<flow id="f_86" type="t_1" begin="36000" color="yellow" from="E30" to="E28" end="54000" period="exp(0.0075)"/>
<flow id="f_87" type="t_1" begin="36000" color="yellow" from="-E3" to="E5" end="54000" period="exp(0.0075)"/>
<flow id="f_88" type="t_1" begin="36000" color="yellow" from="-E5" to="E3" end="54000" period="exp(0.0075)"/>
<flow id="f_89" type="t_1" begin="36000" color="yellow" from="-E43" to="E40" end="54000" period="exp(0.0075)"/>
<flow id="f_90" type="t_1" begin="36000" color="yellow" from="-E26" to="E34" end="54000" period="exp(0.0075)"/>
<flow id="f_91" type="t_1" begin="36000" color="yellow" from="-E33" to="E26" end="54000" period="exp(0.0075)"/>



<flow id="f_131" type="t_2" begin="36000" color="yellow" from="E12" to="E53.21" end="54000" period="exp(0.0075)"/>
<flow id="f_132" type="t_2" begin="36000" color="yellow" from="E13" to="E53.21" end="54000" period="exp(0.0075)"/>
<flow id="f_133" type="t_2" begin="36000" color="yellow" from="E19" to="E53.21" end="54000" period="exp(0.0075)"/>
<flow id="f_134" type="t_2" begin="36000" color="yellow" from="E22" to="E45" end="54000" period="exp(0.0075)"/>
<flow id="f_135" type="t_2" begin="36000" color="yellow" from="E7" to="E45" end="54000" period="exp(0.0075)"/>
<flow id="f_136" type="t_2" begin="36000" color="yellow" from="E32" to="E31" end="54000" period="exp(0.0075)"/>
<flow id="f_137" type="t_2" begin="36000" color="yellow" from="E24" to="E27" end="54000" period="exp(0.0075)"/>
<flow id="f_138" type="t_2" begin="36000" color="yellow" from="E30" to="E28" end="54000" period="exp(0.0075)"/>
<flow id="f_139" type="t_2" begin="36000" color="yellow" from="-E3" to="E5" end="54000" period="exp(0.0075)"/>
<flow id="f_140" type="t_2" begin="36000" color="yellow" from="-E5" to="E3" end="54000" period="exp(0.0075)"/>
<flow id="f_141" type="t_2" begin="36000" color="yellow" from="-E43" to="E40" end="54000" period="exp(0.0075)"/>
<flow id="f_142" type="t_2" begin="36000" color="yellow" from="-E26" to="E34" end="54000" period="exp(0.0075)"/>
<flow id="f_143" type="t_2" begin="36000" color="yellow" from="-E33" to="E26" end="54000" period="exp(0.0075)"/>
<flow id="f_144" type="t_2" begin="54000" color="yellow" from="E12" to="E53.21" end="72000" period="exp(0.0075)"/>
<flow id="f_145" type="t_2" begin="54000" color="yellow" from="E13" to="E53.21" end="72000" period="exp(0.0075)"/>
<flow id="f_146" type="t_2" begin="54000" color="yellow" from="E19" to="E53.21" end="72000" period="exp(0.0075)"/>
<flow id="f_147" type="t_2" begin="54000" color="yellow" from="E22" to="E45" end="72000" period="exp(0.0075)"/>
<flow id="f_148" type="t_2" begin="54000" color="yellow" from="E7" to="E45" end="72000" period="exp(0.0075)"/>
<flow id="f_149" type="t_2" begin="54000" color="yellow" from="E32" to="E31" end="72000" period="exp(0.0075)"/>
<flow id="f_150" type="t_2" begin="54000" color="yellow" from="E24" to="E27" end="72000" period="exp(0.0075)"/>
<flow id="f_151" type="t_2" begin="54000" color="yellow" from="E30" to="E28" end="72000" period="exp(0.0075)"/>
<flow id="f_152" type="t_2" begin="54000" color="yellow" from="-E3" to="E5" end="72000" period="exp(0.0075)"/>
<flow id="f_153" type="t_2" begin="54000" color="yellow" from="-E5" to="E3" end="72000" period="exp(0.0075)"/>
<flow id="f_154" type="t_2" begin="54000" color="yellow" from="-E43" to="E40" end="72000" period="exp(0.0075)"/>
<flow id="f_155" type="t_2" begin="54000" color="yellow" from="-E26" to="E34" end="72000" period="exp(0.0075)"/>
<flow id="f_156" type="t_2" begin="54000" color="yellow" from="-E33" to="E26" end="72000" period="exp(0.0075)"/>

<flow id="f_92" type="t_1" begin="54000" color="yellow" from="E12" to="E53.21" end="72000" period="exp(0.0075)"/>
<flow id="f_93" type="t_1" begin="54000" color="yellow" from="E13" to="E53.21" end="72000" period="exp(0.0075)"/>
<flow id="f_94" type="t_1" begin="54000" color="yellow" from="E19" to="E53.21" end="72000" period="exp(0.0075)"/>
<flow id="f_95" type="t_1" begin="54000" color="yellow" from="E22" to="E45" end="72000" period="exp(0.0075)"/>
<flow id="f_96" type="t_1" begin="54000" color="yellow" from="E7" to="E45" end="72000" period="exp(0.0075)"/>
<flow id="f_97" type="t_1" begin="54000" color="yellow" from="E32" to="E31" end="72000" period="exp(0.0075)"/>
<flow id="f_98" type="t_1" begin="54000" color="yellow" from="E24" to="E27" end="72000" period="exp(0.0075)"/>
<flow id="f_99" type="t_1" begin="54000" color="yellow" from="E30" to="E28" end="72000" period="exp(0.0075)"/>
<flow id="f_100" type="t_1" begin="54000" color="yellow" from="-E3" to="E5" end="72000" period="exp(0.0075)"/>
<flow id="f_101" type="t_1" begin="54000" color="yellow" from="-E5" to="E3" end="72000" period="exp(0.0075)"/>
<flow id="f_102" type="t_1" begin="54000" color="yellow" from="-E43" to="E40" end="72000" period="exp(0.0075)"/>
<flow id="f_103" type="t_1" begin="54000" color="yellow" from="-E26" to="E34" end="72000" period="exp(0.0075)"/>
<flow id="f_104" type="t_1" begin="54000" color="yellow" from="-E33" to="E26" end="72000" period="exp(0.0075)"/>

<flow id="f_40" type="t_0" begin="54000" color="yellow" from="E12" to="E53.21" end="72000" period="exp(0.0075)"/>
<flow id="f_41" type="t_0" begin="54000" color="yellow" from="E13" to="E53.21" end="72000" period="exp(0.0075)"/>
<flow id="f_42" type="t_0" begin="54000" color="yellow" from="E19" to="E53.21" end="72000" period="exp(0.0075)"/>
<flow id="f_43" type="t_0" begin="54000" color="yellow" from="E22" to="E45" end="72000" period="exp(0.0075)"/>
<flow id="f_44" type="t_0" begin="54000" color="yellow" from="E7" to="E45" end="72000" period="exp(0.0075)"/>
<flow id="f_45" type="t_0" begin="54000" color="yellow" from="E32" to="E31" end="72000" period="exp(0.0075)"/>
<flow id="f_46" type="t_0" begin="54000" color="yellow" from="E24" to="E27" end="72000" period="exp(0.0075)"/>
<flow id="f_47" type="t_0" begin="54000" color="yellow" from="E30" to="E28" end="72000" period="exp(0.0075)"/>
<flow id="f_48" type="t_0" begin="54000" color="yellow" from="-E3" to="E5" end="72000" period="exp(0.0075)"/>
<flow id="f_49" type="t_0" begin="54000" color="yellow" from="-E5" to="E3" end="72000" period="exp(0.0075)"/>
<flow id="f_50" type="t_0" begin="54000" color="yellow" from="-E43" to="E40" end="72000" period="exp(0.0075)"/>
<flow id="f_51" type="t_0" begin="54000" color="yellow" from="-E26" to="E34" end="72000" period="exp(0.0075)"/>
<flow id="f_52" type="t_0" begin="54000" color="yellow" from="-E33" to="E26" end="72000" period="exp(0.0075)"/>







</routes>
