<?xml version="1.0" encoding="UTF-8"?>

<!-- generated on 2024-01-07 16:00:38 by Eclipse SUMO netedit Version 1.18.0
-->

<routes xmlns:xsi="http://www.w3.org/2001/XMLSchema-instance" xsi:noNamespaceSchemaLocation="http://sumo.dlr.de/xsd/routes_file.xsd">
    <!-- VTypes -->
    <vType id="t_0" emissionClass="HBEFA4/PC_petrol_Euro-4"/>
    <vType id="t_1" emissionClass="HBEFA4/PC_petrol_Euro-5"/>
    <vType id="t_2" emissionClass="HBEFA4/PC_petrol_Euro-6ab"/>
    <!-- Vehicles, persons and containers (sorted by depart) -->


<flow id="f_1" type="t_0" begin="0" color="yellow" from="E12" to="E53.21" end="7200" period="exp(0.001)"/>
<flow id="f_2" type="t_0" begin="0" color="yellow" from="E13" to="E53.21" end="7200" period="exp(0.0085)"/>
<flow id="f_3" type="t_0" begin="0" color="yellow" from="E19" to="E53.21" end="7200" period="exp(0.065)"/>
<flow id="f_4" type="t_0" begin="0" color="yellow" from="E22" to="E45" end="7200" period="exp(0.02)"/>
<flow id="f_5" type="t_0" begin="0" color="yellow" from="E7" to="E45" end="7200" period="exp(0.024)"/>
<flow id="f_6" type="t_0" begin="0" color="yellow" from="E32" to="E31" end="7200" period="exp(0.035)"/>
<flow id="f_7" type="t_0" begin="0" color="yellow" from="E24" to="E27" end="7200" period="exp(0.035)"/>
<flow id="f_8" type="t_0" begin="0" color="yellow" from="E30" to="E28" end="7200" period="exp(0.035)"/>
<flow id="f_9" type="t_0" begin="0" color="yellow" from="-E3" to="E5" end="7200" period="exp(0.005)"/>
<flow id="f_10" type="t_0" begin="0" color="yellow" from="-E5" to="E3" end="7200" period="exp(0.005)"/>
<flow id="f_11" type="t_0" begin="0" color="yellow" from="-E43" to="E40" end="7200" period="exp(0.005)"/>
<flow id="f_12" type="t_0" begin="0" color="yellow" from="-E26" to="E34" end="7200" period="exp(0.005)"/>
<flow id="f_13" type="t_0" begin="0" color="yellow" from="-E33" to="E26" end="7200" period="exp(0.005)"/>

<flow id="f_79" type="t_1" begin="0" color="yellow" from="E12" to="E53.21" end="7200" period="exp(0.001)"/>
<flow id="f_80" type="t_1" begin="0" color="yellow" from="E13" to="E53.21" end="7200" period="exp(0.0085)"/>
<flow id="f_81" type="t_1" begin="0" color="yellow" from="E19" to="E53.21" end="7200" period="exp(0.065)"/>
<flow id="f_82" type="t_1" begin="0" color="yellow" from="E22" to="E45" end="7200" period="exp(0.02)"/>
<flow id="f_83" type="t_1" begin="0" color="yellow" from="E7" to="E45" end="7200" period="exp(0.024)"/>
<flow id="f_84" type="t_1" begin="0" color="yellow" from="E32" to="E31" end="7200" period="exp(0.035)"/>
<flow id="f_85" type="t_1" begin="0" color="yellow" from="E24" to="E27" end="7200" period="exp(0.035)"/>
<flow id="f_86" type="t_1" begin="0" color="yellow" from="E30" to="E28" end="7200" period="exp(0.035)"/>
<flow id="f_87" type="t_1" begin="0" color="yellow" from="-E3" to="E5" end="7200" period="exp(0.005)"/>
<flow id="f_88" type="t_1" begin="0" color="yellow" from="-E5" to="E3" end="7200" period="exp(0.005)"/>
<flow id="f_89" type="t_1" begin="0" color="yellow" from="-E43" to="E40" end="7200" period="exp(0.005)"/>
<flow id="f_90" type="t_1" begin="0" color="yellow" from="-E26" to="E34" end="7200" period="exp(0.005)"/>
<flow id="f_91" type="t_1" begin="0" color="yellow" from="-E33" to="E26" end="7200" period="exp(0.005)"/>

<flow id="f_157" type="t_2" begin="0" color="yellow" from="E12" to="E53.21" end="7200" period="exp(0.001)"/>
<flow id="f_158" type="t_2" begin="0" color="yellow" from="E13" to="E53.21" end="7200" period="exp(0.0085)"/>
<flow id="f_159" type="t_2" begin="0" color="yellow" from="E19" to="E53.21" end="7200" period="exp(0.065)"/>
<flow id="f_160" type="t_2" begin="0" color="yellow" from="E22" to="E45" end="7200" period="exp(0.02)"/>
<flow id="f_161" type="t_2" begin="0" color="yellow" from="E7" to="E45" end="7200" period="exp(0.024)"/>
<flow id="f_162" type="t_2" begin="0" color="yellow" from="E32" to="E31" end="7200" period="exp(0.035)"/>
<flow id="f_163" type="t_2" begin="0" color="yellow" from="E24" to="E27" end="7200" period="exp(0.035)"/>
<flow id="f_164" type="t_2" begin="0" color="yellow" from="E30" to="E28" end="7200" period="exp(0.035)"/>
<flow id="f_165" type="t_2" begin="0" color="yellow" from="-E3" to="E5" end="7200" period="exp(0.005)"/>
<flow id="f_166" type="t_2" begin="0" color="yellow" from="-E5" to="E3" end="7200" period="exp(0.005)"/>
<flow id="f_167" type="t_2" begin="0" color="yellow" from="-E43" to="E40" end="7200" period="exp(0.005)"/>
<flow id="f_168" type="t_2" begin="0" color="yellow" from="-E26" to="E34" end="7200" period="exp(0.005)"/>
<flow id="f_169" type="t_2" begin="0" color="yellow" from="-E33" to="E26" end="7200" period="exp(0.005)"/>

<flow id="f_170" type="t_2" begin="7200" color="yellow" from="E12" to="E53.21" end="14400" period="exp(0.002)"/>
<flow id="f_171" type="t_2" begin="7200" color="yellow" from="E13" to="E53.21" end="14400" period="exp(0.017)"/>
<flow id="f_172" type="t_2" begin="7200" color="yellow" from="E19" to="E53.21" end="14400" period="exp(0.137)"/>
<flow id="f_173" type="t_2" begin="7200" color="yellow" from="E22" to="E45" end="14400" period="exp(0.04)"/>
<flow id="f_174" type="t_2" begin="7200" color="yellow" from="E7" to="E45" end="14400" period="exp(0.048)"/>
<flow id="f_175" type="t_2" begin="7200" color="yellow" from="E32" to="E31" end="14400" period="exp(0.07)"/>
<flow id="f_176" type="t_2" begin="7200" color="yellow" from="E24" to="E27" end="14400" period="exp(0.07)"/>
<flow id="f_177" type="t_2" begin="7200" color="yellow" from="E30" to="E28" end="14400" period="exp(0.07)"/>
<flow id="f_178" type="t_2" begin="7200" color="yellow" from="-E3" to="E5" end="14400" period="exp(0.01)"/>
<flow id="f_179" type="t_2" begin="7200" color="yellow" from="-E5" to="E3" end="14400" period="exp(0.01)"/>
<flow id="f_180" type="t_2" begin="7200" color="yellow" from="-E43" to="E40" end="14400" period="exp(0.01)"/>
<flow id="f_181" type="t_2" begin="7200" color="yellow" from="-E26" to="E34" end="14400" period="exp(0.01)"/>
<flow id="f_182" type="t_2" begin="7200" color="yellow" from="-E33" to="E26" end="14400" period="exp(0.01)"/>

<flow id="f_92" type="t_1" begin="7200" color="yellow" from="E12" to="E53.21" end="14400" period="exp(0.002)"/>
<flow id="f_93" type="t_1" begin="7200" color="yellow" from="E13" to="E53.21" end="14400" period="exp(0.017)"/>
<flow id="f_94" type="t_1" begin="7200" color="yellow" from="E19" to="E53.21" end="14400" period="exp(0.137)"/>
<flow id="f_95" type="t_1" begin="7200" color="yellow" from="E22" to="E45" end="14400" period="exp(0.04)"/>
<flow id="f_96" type="t_1" begin="7200" color="yellow" from="E7" to="E45" end="14400" period="exp(0.048)"/>
<flow id="f_97" type="t_1" begin="7200" color="yellow" from="E32" to="E31" end="14400" period="exp(0.07)"/>
<flow id="f_98" type="t_1" begin="7200" color="yellow" from="E24" to="E27" end="14400" period="exp(0.07)"/>
<flow id="f_99" type="t_1" begin="7200" color="yellow" from="E30" to="E28" end="14400" period="exp(0.07)"/>
<flow id="f_100" type="t_1" begin="7200" color="yellow" from="-E3" to="E5" end="14400" period="exp(0.01)"/>
<flow id="f_101" type="t_1" begin="7200" color="yellow" from="-E5" to="E3" end="14400" period="exp(0.01)"/>
<flow id="f_102" type="t_1" begin="7200" color="yellow" from="-E43" to="E40" end="14400" period="exp(0.01)"/>
<flow id="f_103" type="t_1" begin="7200" color="yellow" from="-E26" to="E34" end="14400" period="exp(0.01)"/>
<flow id="f_104" type="t_1" begin="7200" color="yellow" from="-E33" to="E26" end="14400" period="exp(0.01)"/>


<flow id="f_14" type="t_0" begin="7200" color="yellow" from="E12" to="E53.21" end="14400" period="exp(0.002)"/>
<flow id="f_15" type="t_0" begin="7200" color="yellow" from="E13" to="E53.21" end="14400" period="exp(0.017)"/>
<flow id="f_16" type="t_0" begin="7200" color="yellow" from="E19" to="E53.21" end="14400" period="exp(0.137)"/>
<flow id="f_17" type="t_0" begin="7200" color="yellow" from="E22" to="E45" end="14400" period="exp(0.04)"/>
<flow id="f_18" type="t_0" begin="7200" color="yellow" from="E7" to="E45" end="14400" period="exp(0.048)"/>
<flow id="f_19" type="t_0" begin="7200" color="yellow" from="E32" to="E31" end="14400" period="exp(0.07)"/>
<flow id="f_20" type="t_0" begin="7200" color="yellow" from="E24" to="E27" end="14400" period="exp(0.07)"/>
<flow id="f_21" type="t_0" begin="7200" color="yellow" from="E30" to="E28" end="14400" period="exp(0.07)"/>
<flow id="f_22" type="t_0" begin="7200" color="yellow" from="-E3" to="E5" end="14400" period="exp(0.01)"/>
<flow id="f_23" type="t_0" begin="7200" color="yellow" from="-E5" to="E3" end="14400" period="exp(0.01)"/>
<flow id="f_24" type="t_0" begin="7200" color="yellow" from="-E43" to="E40" end="14400" period="exp(0.01)"/>
<flow id="f_25" type="t_0" begin="7200" color="yellow" from="-E26" to="E34" end="14400" period="exp(0.01)"/>
<flow id="f_26" type="t_0" begin="7200" color="yellow" from="-E33" to="E26" end="14400" period="exp(0.01)"/>

<flow id="f_27" type="t_0" begin="14400" color="yellow" from="E12" to="E53.21" end="21600" period="exp(0.001)"/>
<flow id="f_28" type="t_0" begin="14400" color="yellow" from="E13" to="E53.21" end="21600" period="exp(0.0085)"/>
<flow id="f_29" type="t_0" begin="14400" color="yellow" from="E19" to="E53.21" end="21600" period="exp(0.065)"/>
<flow id="f_30" type="t_0" begin="14400" color="yellow" from="E22" to="E45" end="21600" period="exp(0.02)"/>
<flow id="f_31" type="t_0" begin="14400" color="yellow" from="E7" to="E45" end="21600" period="exp(0.024)"/>
<flow id="f_32" type="t_0" begin="14400" color="yellow" from="E32" to="E31" end="21600" period="exp(0.035)"/>
<flow id="f_33" type="t_0" begin="14400" color="yellow" from="E24" to="E27" end="21600" period="exp(0.035)"/>
<flow id="f_34" type="t_0" begin="14400" color="yellow" from="E30" to="E28" end="21600" period="exp(0.035)"/>
<flow id="f_35" type="t_0" begin="14400" color="yellow" from="-E3" to="E5" end="21600" period="exp(0.005)"/>
<flow id="f_36" type="t_0" begin="14400" color="yellow" from="-E5" to="E3" end="21600" period="exp(0.005)"/>
<flow id="f_37" type="t_0" begin="14400" color="yellow" from="-E43" to="E40" end="21600" period="exp(0.005)"/>
<flow id="f_38" type="t_0" begin="14400" color="yellow" from="-E26" to="E34" end="21600" period="exp(0.005)"/>
<flow id="f_39" type="t_0" begin="14400" color="yellow" from="-E33" to="E26" end="21600" period="exp(0.005)"/>

<flow id="f_105" type="t_1" begin="14400" color="yellow" from="E12" to="E53.21" end="21600" period="exp(0.001)"/>
<flow id="f_106" type="t_1" begin="14400" color="yellow" from="E13" to="E53.21" end="21600" period="exp(0.0085)"/>
<flow id="f_107" type="t_1" begin="14400" color="yellow" from="E19" to="E53.21" end="21600" period="exp(0.065)"/>
<flow id="f_108" type="t_1" begin="14400" color="yellow" from="E22" to="E45" end="21600" period="exp(0.02)"/>
<flow id="f_109" type="t_1" begin="14400" color="yellow" from="E7" to="E45" end="21600" period="exp(0.024)"/>
<flow id="f_110" type="t_1" begin="14400" color="yellow" from="E32" to="E31" end="21600" period="exp(0.035)"/>
<flow id="f_111" type="t_1" begin="14400" color="yellow" from="E24" to="E27" end="21600" period="exp(0.035)"/>
<flow id="f_112" type="t_1" begin="14400" color="yellow" from="E30" to="E28" end="21600" period="exp(0.035)"/>
<flow id="f_113" type="t_1" begin="14400" color="yellow" from="-E3" to="E5" end="21600" period="exp(0.005)"/>
<flow id="f_114" type="t_1" begin="14400" color="yellow" from="-E5" to="E3" end="21600" period="exp(0.005)"/>
<flow id="f_115" type="t_1" begin="14400" color="yellow" from="-E43" to="E40" end="21600" period="exp(0.005)"/>
<flow id="f_116" type="t_1" begin="14400" color="yellow" from="-E26" to="E34" end="21600" period="exp(0.005)"/>
<flow id="f_117" type="t_1" begin="14400" color="yellow" from="-E33" to="E26" end="21600" period="exp(0.005)"/>

<flow id="f_183" type="t_2" begin="14400" color="yellow" from="E12" to="E53.21" end="21600" period="exp(0.001)"/>
<flow id="f_184" type="t_2" begin="14400" color="yellow" from="E13" to="E53.21" end="21600" period="exp(0.0085)"/>
<flow id="f_185" type="t_2" begin="14400" color="yellow" from="E19" to="E53.21" end="21600" period="exp(0.065)"/>
<flow id="f_186" type="t_2" begin="14400" color="yellow" from="E22" to="E45" end="21600" period="exp(0.02)"/>
<flow id="f_187" type="t_2" begin="14400" color="yellow" from="E7" to="E45" end="21600" period="exp(0.024)"/>
<flow id="f_188" type="t_2" begin="14400" color="yellow" from="E32" to="E31" end="21600" period="exp(0.035)"/>
<flow id="f_189" type="t_2" begin="14400" color="yellow" from="E24" to="E27" end="21600" period="exp(0.035)"/>
<flow id="f_190" type="t_2" begin="14400" color="yellow" from="E30" to="E28" end="21600" period="exp(0.035)"/>
<flow id="f_191" type="t_2" begin="14400" color="yellow" from="-E3" to="E5" end="21600" period="exp(0.005)"/>
<flow id="f_192" type="t_2" begin="14400" color="yellow" from="-E5" to="E3" end="21600" period="exp(0.005)"/>
<flow id="f_193" type="t_2" begin="14400" color="yellow" from="-E43" to="E40" end="21600" period="exp(0.005)"/>
<flow id="f_194" type="t_2" begin="14400" color="yellow" from="-E26" to="E34" end="21600" period="exp(0.005)"/>
<flow id="f_195" type="t_2" begin="14400" color="yellow" from="-E33" to="E26" end="21600" period="exp(0.005)"/>



</routes>
