<?xml version="1.0" encoding="UTF-8"?>

<!-- generated on 2024-01-08 02:38:33 by Eclipse SUMO netedit Version 1.19.0
<configuration xmlns:xsi="http://www.w3.org/2001/XMLSchema-instance" xsi:noNamespaceSchemaLocation="http://sumo.dlr.de/xsd/neteditConfiguration.xsd">

    <input>
        <sumocfg-file value="/home/citiai-cygnus/sumo-rl/nets/SUMO2/last_final.sumocfg"/>
        <additional-files value="/home/citiai-cygnus/sumo-rl/nets/SUMO2/backup.add.xml"/>
        <route-files value="/home/citiai-cygnus/sumo-rl/nets/SUMO2/LAST.rou.xml"/>
        <sumo-net-file value="/home/citiai-cygnus/sumo-rl/nets/SUMO2/Reall02-Gongguan.net.xml"/>
    </input>

    <output>
        <output-file value="/home/citiai-cygnus/sumo-rl/nets/SUMO2/Reall02-Gongguan.net.xml"/>
    </output>

    <processing>
        <geometry.min-radius.fix.railways value="false"/>
        <geometry.max-grade.fix value="false"/>
        <offset.disable-normalization value="true"/>
        <lefthand value="0"/>
    </processing>

    <junctions>
        <no-turnarounds value="true"/>
        <junctions.corner-detail value="5"/>
        <junctions.limit-turn-speed value="5.50"/>
        <rectangular-lane-cut value="0"/>
    </junctions>

    <pedestrian>
        <walkingareas value="0"/>
    </pedestrian>

    <netedit>
        <ignore.routeelements value="false"/>
    </netedit>

</configuration>
-->

<net version="1.16" junctionCornerDetail="5" limitTurnSpeed="5.50" xmlns:xsi="http://www.w3.org/2001/XMLSchema-instance" xsi:noNamespaceSchemaLocation="http://sumo.dlr.de/xsd/net_file.xsd">

    <location netOffset="0.00,0.00" convBoundary="-460.14,-1418.17,-36.90,154.15" origBoundary="-10000000000.00,-10000000000.00,10000000000.00,10000000000.00" projParameter="!"/>

    <type id="edgeType_0" priority="-1" numLanes="3" speed="13.89"/>
    <type id="edgeType_1"/>

    <edge id=":J2_0" function="internal">
        <lane id=":J2_0_0" index="0" speed="6.38" length="9.04" shape="-252.50,-977.42 -254.99,-977.25 -256.78,-976.31 -257.87,-974.61 -258.26,-972.14"/>
    </edge>
    <edge id=":J2_1" function="internal">
        <lane id=":J2_1_0" index="0" speed="13.89" length="39.48" shape="-252.50,-977.42 -262.13,-978.36 -273.99,-979.69 -284.91,-980.84 -291.75,-981.26"/>
        <lane id=":J2_1_1" index="1" speed="13.89" length="39.48" shape="-252.26,-980.61 -261.93,-981.05 -273.87,-981.28 -284.87,-981.34 -291.75,-981.26"/>
    </edge>
    <edge id=":J2_3" function="internal">
        <lane id=":J2_3_0" index="0" speed="11.58" length="7.74" shape="-252.26,-980.61 -259.93,-981.66"/>
    </edge>
    <edge id=":J2_16" function="internal">
        <lane id=":J2_16_0" index="0" speed="11.58" length="21.22" shape="-259.93,-981.66 -262.66,-982.04 -270.10,-984.54 -274.58,-988.11 -276.09,-992.75"/>
    </edge>
    <edge id=":J2_4" function="internal">
        <lane id=":J2_4_0" index="0" speed="6.43" length="8.93" shape="-256.90,-992.86 -256.78,-990.45 -255.88,-988.67 -254.21,-987.52 -251.78,-986.99"/>
    </edge>
    <edge id=":J2_5" function="internal">
        <lane id=":J2_5_0" index="0" speed="13.89" length="20.70" shape="-256.90,-992.86 -258.26,-972.14"/>
        <lane id=":J2_5_1" index="1" speed="13.89" length="20.70" shape="-260.12,-992.84 -261.46,-972.19"/>
        <lane id=":J2_5_2" index="2" speed="13.89" length="20.70" shape="-263.34,-992.82 -264.66,-972.23"/>
    </edge>
    <edge id=":J2_8" function="internal">
        <lane id=":J2_8_0" index="0" speed="8.07" length="14.12" shape="-291.86,-984.46 -287.74,-985.10 -284.81,-986.69 -283.06,-989.23 -282.49,-992.72"/>
    </edge>
    <edge id=":J2_9" function="internal">
        <lane id=":J2_9_0" index="0" speed="13.89" length="40.03" shape="-291.86,-984.46 -284.90,-985.04 -273.69,-986.07 -261.54,-986.94 -251.78,-986.99"/>
        <lane id=":J2_9_1" index="1" speed="13.89" length="40.03" shape="-291.86,-984.46 -284.93,-984.54 -273.81,-984.48 -261.75,-984.24 -252.02,-983.80"/>
    </edge>
    <edge id=":J2_11" function="internal">
        <lane id=":J2_11_0" index="0" speed="7.19" length="11.74" shape="-286.25,-972.53 -286.52,-976.42 -287.53,-979.18 -289.27,-980.79 -291.75,-981.26"/>
    </edge>
    <edge id=":J2_12" function="internal">
        <lane id=":J2_12_0" index="0" speed="13.89" length="20.30" shape="-283.05,-972.48 -282.49,-992.72"/>
        <lane id=":J2_12_1" index="1" speed="13.89" length="20.30" shape="-279.85,-972.44 -279.29,-992.73"/>
        <lane id=":J2_12_2" index="2" speed="13.89" length="20.30" shape="-276.65,-972.40 -276.09,-992.75"/>
    </edge>
    <edge id=":J2_15" function="internal">
        <lane id=":J2_15_0" index="0" speed="13.89" length="19.05" shape="-271.44,-973.85 -269.44,-992.79"/>
    </edge>
    <edge id=":J27_0" function="internal">
        <lane id=":J27_0_0" index="0" speed="7.20" length="11.41" shape="-263.59,-52.09 -263.26,-48.39 -262.22,-45.75 -260.47,-44.18 -258.01,-43.67"/>
    </edge>
    <edge id=":J27_1" function="internal">
        <lane id=":J27_1_0" index="0" speed="13.89" length="24.13" shape="-266.79,-52.11 -267.04,-27.93"/>
        <lane id=":J27_1_1" index="1" speed="13.89" length="24.13" shape="-269.99,-52.12 -270.24,-27.97"/>
        <lane id=":J27_1_2" index="2" speed="13.89" length="24.13" shape="-273.19,-52.14 -273.44,-28.01"/>
        <lane id=":J27_1_3" index="3" speed="13.89" length="24.13" shape="-276.39,-52.16 -276.64,-28.04"/>
        <lane id=":J27_1_4" index="4" speed="13.89" length="24.13" shape="-279.59,-52.17 -279.84,-28.08"/>
    </edge>
    <edge id=":J27_6" function="internal">
        <lane id=":J27_6_0" index="0" speed="6.55" length="9.12" shape="-298.22,-46.64 -295.72,-47.00 -293.93,-48.05 -292.86,-49.79 -292.49,-52.24"/>
        <lane id=":J27_6_1" index="1" speed="7.37" length="11.81" shape="-298.22,-46.64 -294.32,-47.00 -291.53,-48.04 -289.86,-49.79 -289.29,-52.22"/>
        <lane id=":J27_6_2" index="2" speed="8.71" length="16.91" shape="-298.21,-43.44 -292.92,-44.00 -289.14,-45.64 -286.86,-48.38 -286.09,-52.21"/>
    </edge>
    <edge id=":J27_9" function="internal">
        <lane id=":J27_9_0" index="0" speed="13.89" length="40.23" shape="-298.20,-40.24 -257.99,-40.47"/>
        <lane id=":J27_9_1" index="1" speed="13.89" length="40.23" shape="-298.20,-37.04 -257.96,-37.27"/>
    </edge>
    <edge id=":J27_11" function="internal">
        <lane id=":J27_11_0" index="0" speed="10.12" length="23.59" shape="-298.19,-33.84 -288.74,-33.49 -281.99,-32.41 -277.96,-30.59 -276.64,-28.04"/>
        <lane id=":J27_11_1" index="1" speed="9.48" length="20.56" shape="-298.19,-33.84 -290.14,-33.49 -284.39,-32.42 -280.96,-30.61 -279.84,-28.08"/>
    </edge>
    <edge id=":J27_13" function="internal">
        <lane id=":J27_13_0" index="0" speed="13.89" length="24.03" shape="-292.64,-28.23 -292.49,-52.24"/>
        <lane id=":J27_13_1" index="1" speed="13.89" length="24.03" shape="-289.44,-28.19 -289.29,-52.22"/>
        <lane id=":J27_13_2" index="2" speed="13.89" length="24.03" shape="-286.24,-28.16 -286.09,-52.21"/>
    </edge>
    <edge id=":J27_16" function="internal">
        <lane id=":J27_16_0" index="0" speed="10.93" length="26.94" shape="-283.04,-28.12 -281.45,-30.64 -276.73,-32.48 -268.89,-33.62 -257.93,-34.07"/>
    </edge>
    <edge id=":J31_0" function="internal">
        <lane id=":J31_0_0" index="0" speed="13.89" length="12.93" shape="-289.91,-530.02 -290.07,-543.18"/>
        <lane id=":J31_0_1" index="1" speed="13.89" length="12.93" shape="-286.72,-530.16 -286.87,-543.16"/>
        <lane id=":J31_0_2" index="2" speed="13.89" length="12.93" shape="-283.52,-530.29 -283.67,-543.14"/>
        <lane id=":J31_0_3" index="3" speed="13.89" length="12.93" shape="-280.32,-530.42 -280.47,-543.12"/>
    </edge>
    <edge id=":J31_4" function="internal">
        <lane id=":J31_4_0" index="0" speed="6.92" length="11.09" shape="-280.32,-530.42 -280.26,-534.64 -279.66,-537.63 -278.53,-539.38 -276.87,-539.90"/>
        <lane id=":J31_4_1" index="1" speed="5.99" length="8.03" shape="-280.32,-530.42 -280.22,-533.24 -279.64,-535.23 -278.58,-536.38 -277.04,-536.70"/>
    </edge>
    <edge id=":J31_6" function="internal">
        <lane id=":J31_6_0" index="0" speed="7.81" length="12.99" shape="-277.20,-533.51 -280.06,-534.24 -282.08,-536.09 -283.29,-539.05 -283.67,-543.14"/>
        <lane id=":J31_6_1" index="1" speed="7.19" length="10.87" shape="-277.20,-533.51 -278.66,-534.17 -279.68,-536.00 -280.29,-538.98 -280.47,-543.12"/>
    </edge>
    <edge id=":J34_0" function="internal">
        <lane id=":J34_0_0" index="0" speed="6.68" length="9.47" shape="-292.95,35.36 -293.35,32.75 -294.46,30.90 -296.27,29.79 -298.79,29.42"/>
    </edge>
    <edge id=":J34_1" function="internal">
        <lane id=":J34_1_0" index="0" speed="13.89" length="21.46" shape="-292.95,35.36 -293.18,13.77"/>
        <lane id=":J34_1_1" index="1" speed="13.89" length="21.46" shape="-289.75,35.31 -289.98,13.81"/>
        <lane id=":J34_1_2" index="2" speed="13.89" length="21.46" shape="-286.55,35.26 -286.78,13.85"/>
        <lane id=":J34_1_3" index="3" speed="13.89" length="21.46" shape="-283.35,35.22 -283.58,13.89"/>
    </edge>
    <edge id=":J34_5" function="internal">
        <lane id=":J34_5_0" index="0" speed="6.48" length="9.03" shape="-258.64,29.29 -261.09,29.65 -262.84,30.71 -263.86,32.47 -264.18,34.93"/>
        <lane id=":J34_5_1" index="1" speed="7.98" length="14.24" shape="-258.65,26.09 -262.52,26.66 -265.26,28.33 -266.88,31.10 -267.38,34.98"/>
    </edge>
    <edge id=":J34_7" function="internal">
        <lane id=":J34_7_0" index="0" speed="13.89" length="40.16" shape="-258.66,22.89 -298.81,23.02"/>
        <lane id=":J34_7_1" index="1" speed="13.89" length="40.16" shape="-258.67,19.69 -298.83,19.82"/>
    </edge>
    <edge id=":J34_9" function="internal">
        <lane id=":J34_9_0" index="0" speed="11.33" length="29.87" shape="-258.67,19.69 -270.99,19.36 -279.79,18.27 -285.05,16.44 -286.78,13.85"/>
        <lane id=":J34_9_1" index="1" speed="10.75" length="26.79" shape="-258.67,19.69 -269.59,19.36 -277.39,18.28 -282.05,16.46 -283.58,13.89"/>
    </edge>
    <edge id=":J34_11" function="internal">
        <lane id=":J34_11_0" index="0" speed="13.89" length="21.37" shape="-267.68,14.10 -267.25,20.32 -266.07,24.51 -264.82,28.70 -264.18,34.93"/>
        <lane id=":J34_11_1" index="1" speed="13.89" length="21.37" shape="-270.88,14.06 -270.45,20.31 -269.28,24.52 -268.02,28.73 -267.38,34.98"/>
        <lane id=":J34_11_2" index="2" speed="13.89" length="21.37" shape="-274.08,14.02 -273.65,20.29 -272.48,24.52 -271.22,28.75 -270.58,35.03"/>
        <lane id=":J34_11_3" index="3" speed="13.89" length="21.37" shape="-277.28,13.97 -276.85,20.28 -275.68,24.52 -274.42,28.77 -273.78,35.07"/>
        <lane id=":J34_11_4" index="4" speed="13.89" length="21.37" shape="-280.48,13.93 -280.05,20.26 -278.88,24.53 -277.62,28.79 -276.98,35.12"/>
        <lane id=":J34_11_5" index="5" speed="13.89" length="21.37" shape="-280.48,13.93 -280.18,35.17"/>
    </edge>
    <edge id=":J34_17" function="internal">
        <lane id=":J34_17_0" index="0" speed="9.61" length="20.54" shape="-280.48,13.93 -281.68,16.48 -285.13,18.32 -290.85,19.43 -298.83,19.82"/>
    </edge>
    <edge id=":J36_0" function="internal">
        <lane id=":J36_0_0" index="0" speed="6.48" length="9.03" shape="-256.77,-300.76 -259.23,-300.45 -260.99,-299.43 -262.05,-297.69 -262.42,-295.24"/>
        <lane id=":J36_0_1" index="1" speed="7.30" length="11.75" shape="-256.77,-300.76 -260.63,-300.47 -263.39,-299.46 -265.05,-297.72 -265.62,-295.25"/>
        <lane id=":J36_0_2" index="2" speed="8.08" length="14.61" shape="-256.77,-300.76 -262.03,-300.49 -265.79,-299.49 -268.05,-297.75 -268.82,-295.27"/>
    </edge>
    <edge id=":J36_3" function="internal">
        <lane id=":J36_3_0" index="0" speed="13.89" length="40.03" shape="-256.77,-300.76 -296.80,-301.14"/>
    </edge>
    <edge id=":J36_4" function="internal">
        <lane id=":J36_4_0" index="0" speed="11.16" length="11.19" shape="-256.77,-300.76 -267.63,-301.49 -267.92,-301.56"/>
    </edge>
    <edge id=":J36_21" function="internal">
        <lane id=":J36_21_0" index="0" speed="11.16" length="17.17" shape="-267.92,-301.56 -275.37,-303.25 -280.01,-306.04 -281.53,-309.87"/>
    </edge>
    <edge id=":J36_5" function="internal">
        <lane id=":J36_5_0" index="0" speed="6.57" length="9.16" shape="-262.33,-309.73 -261.99,-307.24 -260.95,-305.45 -259.19,-304.36 -256.71,-303.96"/>
    </edge>
    <edge id=":J36_6" function="internal">
        <lane id=":J36_6_0" index="0" speed="13.89" length="14.51" shape="-262.33,-309.73 -262.42,-295.24"/>
        <lane id=":J36_6_1" index="1" speed="13.89" length="14.51" shape="-265.53,-309.76 -265.62,-295.25"/>
        <lane id=":J36_6_2" index="2" speed="13.89" length="14.51" shape="-268.73,-309.78 -268.82,-295.27"/>
        <lane id=":J36_6_3" index="3" speed="13.89" length="14.51" shape="-271.93,-309.80 -272.02,-295.28"/>
        <lane id=":J36_6_4" index="4" speed="13.89" length="14.51" shape="-275.13,-309.82 -275.22,-295.30"/>
        <lane id=":J36_6_5" index="5" speed="13.89" length="14.51" shape="-278.33,-309.85 -278.42,-295.32"/>
    </edge>
    <edge id=":J36_12" function="internal">
        <lane id=":J36_12_0" index="0" speed="6.54" length="9.07" shape="-296.80,-304.34 -294.33,-304.70 -292.57,-305.75 -291.50,-307.49 -291.13,-309.94"/>
    </edge>
    <edge id=":J36_13" function="internal">
        <lane id=":J36_13_0" index="0" speed="13.89" length="40.09" shape="-296.80,-304.34 -256.71,-303.96"/>
    </edge>
    <edge id=":J36_14" function="internal">
        <lane id=":J36_14_0" index="0" speed="10.55" length="10.41" shape="-296.80,-304.34 -287.34,-303.79 -286.44,-303.56"/>
        <lane id=":J36_14_1" index="1" speed="9.96" length="8.81" shape="-296.80,-304.34 -288.74,-303.79 -288.04,-303.58"/>
    </edge>
    <edge id=":J36_22" function="internal">
        <lane id=":J36_22_0" index="0" speed="10.55" length="15.14" shape="-286.44,-303.56 -280.59,-302.09 -276.55,-299.26 -275.22,-295.30"/>
    </edge>
    <edge id=":J36_23" function="internal">
        <lane id=":J36_23_0" index="0" speed="9.96" length="13.83" shape="-288.04,-303.58 -282.99,-302.10 -279.55,-299.27 -278.42,-295.32"/>
    </edge>
    <edge id=":J36_16" function="internal">
        <lane id=":J36_16_0" index="0" speed="6.54" length="9.16" shape="-291.22,-295.38 -291.56,-297.90 -292.60,-299.71 -294.35,-300.79 -296.80,-301.14"/>
    </edge>
    <edge id=":J36_17" function="internal">
        <lane id=":J36_17_0" index="0" speed="13.89" length="14.55" shape="-291.22,-295.38 -291.13,-309.94"/>
        <lane id=":J36_17_1" index="1" speed="13.89" length="14.55" shape="-288.02,-295.36 -287.93,-309.91"/>
        <lane id=":J36_17_2" index="2" speed="13.89" length="14.55" shape="-284.82,-295.35 -284.73,-309.89"/>
        <lane id=":J36_17_3" index="3" speed="13.89" length="14.55" shape="-281.62,-295.33 -281.53,-309.87"/>
    </edge>
    <edge id=":J38_0" function="internal">
        <lane id=":J38_0_0" index="0" speed="5.97" length="7.40" shape="-255.22,-529.44 -257.67,-529.22 -259.42,-528.57 -260.48,-527.49 -260.84,-525.97"/>
    </edge>
    <edge id=":J38_1" function="internal">
        <lane id=":J38_1_0" index="0" speed="13.89" length="19.42" shape="-255.22,-532.64 -274.62,-533.37"/>
    </edge>
    <edge id=":J38_2" function="internal">
        <lane id=":J38_2_0" index="0" speed="6.79" length="10.25" shape="-262.04,-544.79 -261.71,-542.27 -260.46,-540.48 -258.30,-539.40 -255.21,-539.04"/>
    </edge>
    <edge id=":J38_3" function="internal">
        <lane id=":J38_3_0" index="0" speed="13.89" length="19.08" shape="-262.04,-544.79 -262.02,-539.20 -261.57,-535.38 -261.05,-531.56 -260.84,-525.97"/>
        <lane id=":J38_3_1" index="1" speed="13.89" length="19.08" shape="-265.24,-544.93 -265.22,-539.29 -264.77,-535.43 -264.25,-531.57 -264.04,-525.92"/>
        <lane id=":J38_3_2" index="2" speed="13.89" length="19.08" shape="-268.43,-545.08 -268.42,-539.37 -267.97,-535.48 -267.45,-531.58 -267.24,-525.87"/>
    </edge>
    <edge id=":J38_6" function="internal">
        <lane id=":J38_6_0" index="0" speed="8.09" length="14.59" shape="-268.43,-545.08 -269.03,-539.85 -270.25,-536.15 -272.12,-534.00 -274.62,-533.37"/>
    </edge>
    <edge id=":J38_7" function="internal">
        <lane id=":J38_7_0" index="0" speed="13.89" length="19.09" shape="-274.29,-539.77 -255.21,-539.04"/>
    </edge>
    <edge id=":J38_8" function="internal">
        <lane id=":J38_8_0" index="0" speed="9.41" length="9.07" shape="-274.29,-539.77 -269.76,-538.70 -266.55,-536.04 -266.45,-535.82"/>
    </edge>
    <edge id=":J38_9" function="internal">
        <lane id=":J38_9_0" index="0" speed="13.89" length="19.25" shape="-274.46,-536.57 -255.22,-535.84"/>
    </edge>
    <edge id=":J38_10" function="internal">
        <lane id=":J38_10_0" index="0" speed="8.20" length="3.19" shape="-274.46,-536.57 -271.37,-535.78"/>
    </edge>
    <edge id=":J38_11" function="internal">
        <lane id=":J38_11_0" index="0" speed="9.41" length="10.32" shape="-266.45,-535.82 -264.64,-531.78 -264.04,-525.92"/>
    </edge>
    <edge id=":J38_12" function="internal">
        <lane id=":J38_12_0" index="0" speed="8.20" length="11.28" shape="-271.37,-535.78 -271.27,-535.76 -269.00,-533.70 -267.66,-530.41 -267.24,-525.87"/>
    </edge>
    <edge id=":J4_0" function="internal">
        <lane id=":J4_0_0" index="0" speed="13.89" length="46.64" shape="-287.53,-908.74 -286.60,-955.43"/>
        <lane id=":J4_0_1" index="1" speed="13.89" length="46.64" shape="-284.33,-908.72 -283.40,-955.37"/>
        <lane id=":J4_0_2" index="2" speed="13.89" length="46.64" shape="-281.13,-908.69 -280.20,-955.30"/>
        <lane id=":J4_0_3" index="3" speed="13.89" length="46.64" shape="-277.93,-908.66 -277.00,-955.23"/>
    </edge>
    <edge id=":J4_4" function="internal">
        <lane id=":J4_4_0" index="0" speed="13.89" length="46.60" shape="-277.93,-908.66 -277.23,-923.64 -275.83,-937.47 -274.37,-948.48 -273.48,-955.01"/>
    </edge>
    <edge id=":J40_0" function="internal">
        <lane id=":J40_0_0" index="0" speed="6.82" length="10.43" shape="-275.32,-828.83 -278.18,-829.11 -280.22,-830.25 -281.43,-832.24 -281.82,-835.10"/>
        <lane id=":J40_0_1" index="1" speed="6.03" length="7.91" shape="-275.32,-828.83 -276.78,-829.16 -277.82,-830.31 -278.43,-832.28 -278.62,-835.07"/>
    </edge>
    <edge id=":J40_2" function="internal">
        <lane id=":J40_2_0" index="0" speed="13.89" length="9.43" shape="-288.29,-825.72 -288.22,-835.16"/>
        <lane id=":J40_2_1" index="1" speed="13.89" length="9.43" shape="-285.09,-825.70 -285.02,-835.13"/>
        <lane id=":J40_2_2" index="2" speed="13.89" length="9.43" shape="-281.89,-825.68 -281.82,-835.10"/>
        <lane id=":J40_2_3" index="3" speed="13.89" length="9.43" shape="-278.69,-825.66 -278.62,-835.07"/>
    </edge>
    <edge id=":J40_6" function="internal">
        <lane id=":J40_6_0" index="0" speed="6.22" length="7.85" shape="-278.69,-825.66 -278.47,-828.39 -277.86,-830.36 -276.86,-831.57 -275.46,-832.02"/>
    </edge>
    <edge id=":J42_0" function="internal">
        <lane id=":J42_0_0" index="0" speed="13.89" length="6.93" shape="-260.84,-525.77 -260.85,-519.24"/>
        <lane id=":J42_0_1" index="1" speed="13.89" length="6.93" shape="-260.84,-525.77 -261.35,-523.74 -262.45,-522.52 -263.54,-521.30 -264.05,-519.27"/>
        <lane id=":J42_0_2" index="2" speed="13.89" length="6.93" shape="-264.04,-525.72 -264.05,-519.27"/>
        <lane id=":J42_0_3" index="3" speed="13.89" length="6.93" shape="-264.04,-525.72 -264.55,-523.70 -265.65,-522.50 -266.74,-521.30 -267.25,-519.29"/>
        <lane id=":J42_0_4" index="4" speed="13.89" length="6.93" shape="-267.24,-525.67 -267.25,-519.29"/>
        <lane id=":J42_0_5" index="5" speed="13.89" length="6.93" shape="-267.24,-525.67 -267.75,-523.67 -268.85,-522.49 -269.94,-521.31 -270.45,-519.31"/>
    </edge>
    <edge id=":J43_0" function="internal">
        <lane id=":J43_0_0" index="0" speed="13.89" length="9.37" shape="-260.13,-835.35 -260.22,-826.00"/>
        <lane id=":J43_0_1" index="1" speed="13.89" length="9.37" shape="-263.33,-835.39 -263.42,-826.02"/>
        <lane id=":J43_0_2" index="2" speed="13.89" length="9.37" shape="-266.53,-835.43 -266.62,-826.04"/>
    </edge>
    <edge id=":J43_3" function="internal">
        <lane id=":J43_3_0" index="0" speed="6.24" length="7.84" shape="-266.53,-835.43 -266.76,-832.71 -267.38,-830.74 -268.39,-829.53 -269.78,-829.08"/>
    </edge>
    <edge id=":J43_4" function="internal">
        <lane id=":J43_4_0" index="0" speed="6.82" length="10.42" shape="-269.92,-832.27 -267.06,-831.99 -265.02,-830.86 -263.81,-828.87 -263.42,-826.02"/>
        <lane id=":J43_4_1" index="1" speed="6.03" length="7.90" shape="-269.92,-832.27 -268.46,-831.94 -267.43,-830.79 -266.81,-828.82 -266.62,-826.04"/>
    </edge>
    <edge id=":J5_0" function="internal">
        <lane id=":J5_0_0" index="0" speed="13.89" length="1.42" shape="-271.39,-975.07 -271.45,-973.65"/>
    </edge>
    <edge id=":J51_0" function="internal">
        <lane id=":J51_0_0" index="0" speed="12.60" length="38.37" shape="-235.32,-1344.03 -233.57,-1337.16 -227.83,-1332.38 -218.10,-1329.69 -204.39,-1329.10"/>
    </edge>
    <edge id=":J51_1" function="internal">
        <lane id=":J51_1_0" index="0" speed="13.89" length="28.53" shape="-235.32,-1344.03 -235.55,-1336.04 -235.20,-1330.49 -233.61,-1325.22 -230.13,-1318.10"/>
        <lane id=":J51_1_1" index="1" speed="13.89" length="28.53" shape="-238.52,-1344.13 -238.78,-1335.83 -238.46,-1330.06 -236.86,-1324.58 -233.26,-1317.19"/>
        <lane id=":J51_1_2" index="2" speed="13.89" length="28.53" shape="-241.72,-1344.22 -242.01,-1335.62 -241.72,-1329.62 -240.11,-1323.94 -236.40,-1316.27"/>
        <lane id=":J51_1_3" index="3" speed="13.89" length="28.53" shape="-244.91,-1344.32 -245.24,-1335.41 -244.99,-1329.19 -243.36,-1323.30 -239.54,-1315.35"/>
    </edge>
    <edge id=":J51_5" function="internal">
        <lane id=":J51_5_0" index="0" speed="13.89" length="50.12" shape="-253.28,-1339.60 -239.38,-1336.84 -227.02,-1333.25 -215.56,-1330.20 -204.39,-1329.10"/>
    </edge>
    <edge id=":J51_6" function="internal">
        <lane id=":J51_6_0" index="0" speed="13.89" length="32.70" shape="-253.28,-1339.60 -247.12,-1337.66 -241.21,-1333.43 -235.54,-1326.91 -230.13,-1318.10"/>
    </edge>
    <edge id=":J51_7" function="internal">
        <lane id=":J51_7_0" index="0" speed="13.89" length="49.90" shape="-253.68,-1336.42 -239.71,-1334.16 -227.22,-1331.66 -215.63,-1329.71 -204.39,-1329.10"/>
    </edge>
    <edge id=":J51_8" function="internal">
        <lane id=":J51_8_0" index="0" speed="13.89" length="29.02" shape="-253.68,-1336.42 -248.31,-1334.70 -243.12,-1330.93 -238.10,-1325.09 -233.26,-1317.19"/>
    </edge>
    <edge id=":J51_9" function="internal">
        <lane id=":J51_9_0" index="0" speed="13.89" length="50.39" shape="-254.08,-1333.25 -240.04,-1330.98 -227.37,-1328.47 -215.61,-1326.51 -204.30,-1325.90"/>
    </edge>
    <edge id=":J51_10" function="internal">
        <lane id=":J51_10_0" index="0" speed="13.89" length="25.34" shape="-254.08,-1333.25 -249.50,-1331.75 -245.02,-1328.42 -240.66,-1323.26 -236.40,-1316.27"/>
    </edge>
    <edge id=":J51_11" function="internal">
        <lane id=":J51_11_0" index="0" speed="13.89" length="50.88" shape="-254.48,-1330.07 -240.36,-1327.81 -227.52,-1325.29 -215.60,-1323.32 -204.21,-1322.70"/>
    </edge>
    <edge id=":J51_12" function="internal">
        <lane id=":J51_12_0" index="0" speed="13.26" length="21.66" shape="-254.48,-1330.07 -250.69,-1328.79 -246.93,-1325.91 -243.22,-1321.43 -239.54,-1315.35"/>
    </edge>
    <edge id=":J54_0" function="internal">
        <lane id=":J54_0_0" index="0" speed="9.17" length="19.22" shape="-309.39,-1325.46 -304.24,-1326.26 -300.60,-1328.57 -298.48,-1332.38 -297.88,-1337.69"/>
    </edge>
    <edge id=":J54_1" function="internal">
        <lane id=":J54_1_0" index="0" speed="13.89" length="28.03" shape="-309.39,-1325.46 -301.84,-1326.11 -296.87,-1327.84 -292.15,-1330.59 -285.32,-1334.31"/>
        <lane id=":J54_1_1" index="1" speed="13.89" length="28.03" shape="-309.39,-1325.46 -301.44,-1325.66 -296.00,-1326.41 -290.80,-1328.21 -283.60,-1331.59"/>
        <lane id=":J54_1_2" index="2" speed="13.89" length="28.03" shape="-309.36,-1322.26 -300.89,-1322.48 -295.09,-1323.30 -289.55,-1325.26 -281.88,-1328.86"/>
        <lane id=":J54_1_3" index="3" speed="13.89" length="28.03" shape="-309.33,-1319.06 -300.34,-1319.30 -294.19,-1320.20 -288.31,-1322.30 -280.15,-1326.14"/>
    </edge>
    <edge id=":J54_5" function="internal">
        <lane id=":J54_5_0" index="0" speed="13.89" length="25.59" shape="-304.61,-1313.25 -302.37,-1320.51 -300.11,-1325.36 -298.42,-1330.27 -297.88,-1337.69"/>
    </edge>
    <edge id=":J54_6" function="internal">
        <lane id=":J54_6_0" index="0" speed="13.89" length="29.54" shape="-304.61,-1313.25 -302.33,-1319.49 -298.35,-1325.08 -292.68,-1330.02 -285.32,-1334.31"/>
    </edge>
    <edge id=":J54_7" function="internal">
        <lane id=":J54_7_0" index="0" speed="13.89" length="26.34" shape="-301.48,-1312.56 -299.20,-1320.05 -296.91,-1325.06 -295.21,-1330.12 -294.68,-1337.77"/>
    </edge>
    <edge id=":J54_8" function="internal">
        <lane id=":J54_8_0" index="0" speed="13.89" length="26.99" shape="-301.48,-1312.56 -299.41,-1318.11 -295.74,-1323.12 -290.47,-1327.62 -283.60,-1331.59"/>
    </edge>
    <edge id=":J54_9" function="internal">
        <lane id=":J54_9_0" index="0" speed="13.89" length="27.09" shape="-298.35,-1311.88 -296.02,-1319.59 -293.72,-1324.75 -292.01,-1329.97 -291.48,-1337.85"/>
    </edge>
    <edge id=":J54_10" function="internal">
        <lane id=":J54_10_0" index="0" speed="13.89" length="24.45" shape="-298.35,-1311.88 -296.50,-1316.73 -293.13,-1321.17 -288.26,-1325.22 -281.88,-1328.86"/>
    </edge>
    <edge id=":J54_11" function="internal">
        <lane id=":J54_11_0" index="0" speed="13.89" length="27.04" shape="-295.23,-1311.20 -293.38,-1319.02 -292.15,-1324.41 -291.52,-1329.86 -291.48,-1337.85"/>
    </edge>
    <edge id=":J54_12" function="internal">
        <lane id=":J54_12_0" index="0" speed="13.84" length="21.91" shape="-295.23,-1311.20 -293.58,-1315.35 -290.52,-1319.22 -286.05,-1322.82 -280.15,-1326.14"/>
    </edge>
    <edge id=":J56_0" function="internal">
        <lane id=":J56_0_0" index="0" speed="12.75" length="37.84" shape="-284.07,-1244.90 -285.54,-1255.65 -289.78,-1263.29 -296.80,-1267.81 -306.60,-1269.22"/>
    </edge>
    <edge id=":J56_1" function="internal">
        <lane id=":J56_1_0" index="0" speed="13.89" length="44.76" shape="-280.87,-1244.92 -283.51,-1254.34 -289.64,-1261.90 -296.76,-1270.25 -302.39,-1282.07"/>
        <lane id=":J56_1_1" index="1" speed="13.89" length="44.76" shape="-280.87,-1244.92 -283.08,-1254.64 -288.24,-1262.85 -294.41,-1271.85 -299.60,-1283.96"/>
        <lane id=":J56_1_2" index="2" speed="13.89" length="44.76" shape="-277.67,-1244.94 -279.94,-1254.95 -285.25,-1263.80 -291.55,-1273.45 -296.81,-1285.86"/>
        <lane id=":J56_1_3" index="3" speed="13.89" length="44.76" shape="-277.67,-1244.94 -279.50,-1255.25 -283.85,-1264.75 -289.20,-1275.05 -294.02,-1287.75"/>
    </edge>
    <edge id=":J56_5" function="internal">
        <lane id=":J56_5_0" index="0" speed="13.89" length="39.13" shape="-271.68,-1253.08 -283.09,-1256.51 -290.68,-1262.00 -297.50,-1267.07 -306.60,-1269.22"/>
    </edge>
    <edge id=":J56_6" function="internal">
        <lane id=":J56_6_0" index="0" speed="13.89" length="45.06" shape="-271.68,-1253.08 -282.32,-1255.84 -290.99,-1261.59 -297.68,-1270.33 -302.39,-1282.07"/>
    </edge>
    <edge id=":J56_7" function="internal">
        <lane id=":J56_7_0" index="0" speed="13.89" length="23.01" shape="-270.63,-1256.19 -282.43,-1259.65 -290.37,-1265.18 -291.21,-1265.78"/>
    </edge>
    <edge id=":J56_8" function="internal">
        <lane id=":J56_8_0" index="0" speed="13.89" length="42.81" shape="-270.63,-1256.19 -280.63,-1258.81 -288.79,-1264.31 -295.11,-1272.70 -299.60,-1283.96"/>
    </edge>
    <edge id=":J56_9" function="internal">
        <lane id=":J56_9_0" index="0" speed="13.89" length="19.90" shape="-269.58,-1259.29 -281.66,-1262.78 -287.75,-1266.86"/>
    </edge>
    <edge id=":J56_10" function="internal">
        <lane id=":J56_10_0" index="0" speed="13.89" length="40.56" shape="-269.58,-1259.29 -278.93,-1261.78 -286.58,-1267.04 -292.54,-1275.06 -296.81,-1285.86"/>
    </edge>
    <edge id=":J56_11" function="internal">
        <lane id=":J56_11_0" index="0" speed="13.89" length="11.17" shape="-268.54,-1262.40 -279.39,-1265.06"/>
    </edge>
    <edge id=":J56_12" function="internal">
        <lane id=":J56_12_0" index="0" speed="13.89" length="38.31" shape="-268.54,-1262.40 -277.23,-1264.75 -284.37,-1269.76 -289.97,-1277.43 -294.02,-1287.75"/>
    </edge>
    <edge id=":J56_13" function="internal">
        <lane id=":J56_13_0" index="0" speed="13.89" length="17.12" shape="-291.21,-1265.78 -297.45,-1270.26 -306.64,-1272.42"/>
    </edge>
    <edge id=":J56_14" function="internal">
        <lane id=":J56_14_0" index="0" speed="13.89" length="21.23" shape="-287.75,-1266.86 -289.97,-1268.34 -297.36,-1273.45 -306.69,-1275.62"/>
    </edge>
    <edge id=":J56_15" function="internal">
        <lane id=":J56_15_0" index="0" speed="13.89" length="29.57" shape="-279.39,-1265.06 -280.78,-1265.40 -289.44,-1269.89 -297.19,-1273.94 -306.69,-1275.62"/>
    </edge>
    <edge id=":J60_0" function="internal">
        <lane id=":J60_0_0" index="0" speed="12.88" length="30.52" shape="-202.27,-1279.41 -207.23,-1278.85 -212.32,-1275.29 -217.55,-1268.74 -222.90,-1259.20"/>
    </edge>
    <edge id=":J60_1" function="internal">