<?xml version="1.0" encoding="UTF-8"?>

<!-- generated on 2023-11-02 16:34:07 by Eclipse SUMO netedit Version 1.18.0
-->

<routes xmlns:xsi="http://www.w3.org/2001/XMLSchema-instance" xsi:noNamespaceSchemaLocation="http://sumo.dlr.de/xsd/routes_file.xsd">
    <!-- VTypes -->
    <vType id="t_0" length="1.50" minGap="1.00" vClass="moped" tau="1"/>
    <vType id="t_1" sigma="1"/>
    <!-- Vehicles, persons and containers (sorted by depart) -->
    <flow id="f_0" type="t_0" begin="0.00" from="-E7" to="E8" via="-E6.280" end="3600.00" vehsPerHour="1800.00"/>
    <flow id="f_1" type="t_0" begin="0.00" from="-E9" to="-E11" via="-E10.282" end="3600.00" vehsPerHour="1800.00"/>
    <flow id="f_3" begin="0.00" from="-E7" to="-E5" end="3600.00" vehsPerHour="1800.00"/>
    <flow id="f_4" begin="0.00" from="-E7" to="E60.7" end="3600.00" vehsPerHour="1800.00"/>
    <flow id="f_5" type="t_0" begin="0.00" from="-E9" to="-E11" via="-E10.282" end="3600.00" vehsPerHour="1800.00"/>
</routes>
