<?xml version="1.0" encoding="UTF-8"?>

<!-- generated on 2023-12-14 01:35:46 by Eclipse SUMO netedit Version 1.18.0
-->

<additional xmlns:xsi="http://www.w3.org/2001/XMLSchema-instance" xsi:noNamespaceSchemaLocation="http://sumo.dlr.de/xsd/additional_file.xsd">
    <!-- Other additionals -->
    <rerouter id="rr_0" edges="E16" pos="-6.98,-1410.90">
        <interval begin="0.00" end="3600.00">
            <destProbReroute id="E13.40" probability="1.00"/>
        </interval>
    </rerouter>
</additional>
