<?xml version="1.0" encoding="UTF-8"?>

<!-- generated on 2023-12-14 01:35:46 by Eclipse SUMO netedit Version 1.18.0
-->

<routes xmlns:xsi="http://www.w3.org/2001/XMLSchema-instance" xsi:noNamespaceSchemaLocation="http://sumo.dlr.de/xsd/routes_file.xsd">
    <!-- Vehicles, persons and containers (sorted by depart) -->
    <flow id="f_0" begin="0.00" from="E16" to="E12.39" end="3600.00" vehsPerHour="1800.00"/>
</routes>
