<?xml version="1.0" encoding="UTF-8"?>

<!-- generated on 2023-11-13 01:32:59 by Eclipse SUMO netedit Version 1.18.0
-->

<routes xmlns:xsi="http://www.w3.org/2001/XMLSchema-instance" xsi:noNamespaceSchemaLocation="http://sumo.dlr.de/xsd/routes_file.xsd">
    <!-- Vehicles, persons and containers (sorted by depart) -->
    <flow id="f_0" begin="0.00" from="E6" to="E11" end="3600.00" vehsPerHour="1800.00"/>
    <flow id="f_1" begin="0.00" from="E20" to="E21" end="3600.00" vehsPerHour="1800.00"/>
    <flow id="f_10" begin="0.00" from="E15" to="E21" end="3600.00" vehsPerHour="1800.00"/>
    <flow id="f_11" begin="0.00" from="E15" to="E46" end="3600.00" vehsPerHour="1800.00"/>
    <flow id="f_12" begin="0.00" from="E17" to="E7" end="3600.00" vehsPerHour="1800.00"/>
    <flow id="f_13" begin="0.00" color="orange" from="E18" to="E7" end="3600.00" vehsPerHour="1800.00"/>
    <flow id="f_14" begin="0.00" color="orange" from="E15" to="E7" end="3600.00" vehsPerHour="1800.00"/>
    <flow id="f_2" begin="0.00" from="E20" to="E7" end="3600.00" vehsPerHour="1800.00"/>
    <flow id="f_3" begin="0.00" from="E6" to="E8" end="3600.00" vehsPerHour="1800.00"/>
    <flow id="f_4" begin="0.00" from="E6" to="E11" end="3600.00" vehsPerHour="1800.00"/>
    <flow id="f_5" begin="0.00" from="E45" to="E7" end="3600.00" vehsPerHour="1800.00"/>
    <flow id="f_6" begin="0.00" from="E15" to="E7" end="3600.00" vehsPerHour="1800.00"/>
    <flow id="f_7" begin="0.00" from="-E46" to="E21" end="3600.00" vehsPerHour="1800.00"/>
    <flow id="f_8" begin="0.00" from="E20" to="E8" end="3600.00" vehsPerHour="1800.00"/>
    <flow id="f_9" begin="0.00" from="E18" to="E21" end="3600.00" vehsPerHour="1800.00"/>
</routes>
