<?xml version="1.0" encoding="UTF-8"?>

<!-- generated on 2023-11-10 15:38:30 by Eclipse SUMO netedit Version 1.18.0
<configuration xmlns:xsi="http://www.w3.org/2001/XMLSchema-instance" xsi:noNamespaceSchemaLocation="http://sumo.dlr.de/xsd/neteditConfiguration.xsd">

    <input>
        <sumocfg-file value="C:\Program Files (x86)\Eclipse\Sumo\thesis_test\Real-JilongXinyi.sumocfg"/>
        <additional-files value=""/>
        <route-files value="C:\Program Files (x86)\Eclipse\Sumo\thesis_test\Real-JilongXinyi.rou.xml"/>
        <sumo-net-file value="C:\Program Files (x86)\Eclipse\Sumo\thesis_test\Real-JilongXinyi.net.xml"/>
    </input>

    <output>
        <output-file value="C:\Program Files (x86)\Eclipse\Sumo\thesis_test\Real-JilongXinyi.net.xml"/>
    </output>

    <processing>
        <geometry.min-radius.fix.railways value="false"/>
        <geometry.max-grade.fix value="false"/>
        <offset.disable-normalization value="true"/>
        <lefthand value="0"/>
    </processing>

    <junctions>
        <no-turnarounds value="true"/>
        <junctions.corner-detail value="5"/>
        <junctions.limit-turn-speed value="5.50"/>
        <rectangular-lane-cut value="0"/>
    </junctions>

    <pedestrian>
        <walkingareas value="0"/>
    </pedestrian>

</configuration>
-->

<net version="1.16" junctionCornerDetail="5" limitTurnSpeed="5.50" xmlns:xsi="http://www.w3.org/2001/XMLSchema-instance" xsi:noNamespaceSchemaLocation="http://sumo.dlr.de/xsd/net_file.xsd">

    <location netOffset="0.00,0.00" convBoundary="-408.80,-130.66,-137.75,136.39" origBoundary="-10000000000.00,-10000000000.00,10000000000.00,10000000000.00" projParameter="!"/>

    <edge id=":J0_0" function="internal">
        <lane id=":J0_0_0" index="0" speed="13.89" length="1.22" shape="-264.23,-19.00 -264.24,-18.48"/>
        <lane id=":J0_0_1" index="1" speed="13.89" length="1.22" shape="-267.43,-19.11 -267.44,-18.47"/>
        <lane id=":J0_0_2" index="2" speed="13.89" length="1.22" shape="-270.63,-19.22 -270.64,-18.46"/>
        <lane id=":J0_0_3" index="3" speed="13.89" length="1.22" shape="-273.82,-19.33 -270.64,-18.46"/>
        <lane id=":J0_0_4" index="4" speed="13.89" length="1.22" shape="-277.02,-19.43 -277.04,-18.44"/>
        <lane id=":J0_0_5" index="5" speed="13.89" length="1.22" shape="-280.22,-19.54 -280.24,-18.43"/>
    </edge>
    <edge id=":J27_0" function="internal">
        <lane id=":J27_0_0" index="0" speed="7.93" length="14.11" shape="-263.49,-51.92 -263.19,-46.89 -262.16,-43.31 -260.40,-41.17 -257.92,-40.47"/>
    </edge>
    <edge id=":J27_1" function="internal">
        <lane id=":J27_1_0" index="0" speed="13.89" length="24.48" shape="-266.69,-51.95 -267.15,-27.33"/>
        <lane id=":J27_1_1" index="1" speed="13.89" length="24.48" shape="-269.89,-51.99 -270.35,-27.44"/>
        <lane id=":J27_1_2" index="2" speed="13.89" length="24.48" shape="-273.09,-52.02 -273.55,-27.55"/>
        <lane id=":J27_1_3" index="3" speed="13.89" length="24.48" shape="-276.29,-52.06 -276.74,-27.65"/>
        <lane id=":J27_1_4" index="4" speed="13.89" length="24.48" shape="-279.49,-52.09 -279.94,-27.76"/>
    </edge>
    <edge id=":J27_6" function="internal">
        <lane id=":J27_6_0" index="0" speed="7.40" length="11.88" shape="-298.22,-46.64 -294.28,-46.99 -291.46,-48.04 -289.76,-49.77 -289.17,-52.20"/>
        <lane id=":J27_6_1" index="1" speed="8.74" length="16.95" shape="-298.21,-43.44 -292.89,-43.99 -289.08,-45.63 -286.77,-48.35 -285.97,-52.16"/>
    </edge>
    <edge id=":J27_8" function="internal">
        <lane id=":J27_8_0" index="0" speed="13.89" length="40.30" shape="-298.20,-40.24 -257.92,-40.47"/>
        <lane id=":J27_8_1" index="1" speed="13.89" length="40.30" shape="-298.20,-37.04 -257.89,-37.27"/>
    </edge>
    <edge id=":J27_10" function="internal">
        <lane id=":J27_10_0" index="0" speed="9.43" length="20.68" shape="-298.19,-33.84 -290.13,-33.47 -284.40,-32.34 -281.01,-30.43 -279.94,-27.76"/>
    </edge>
    <edge id=":J27_11" function="internal">
        <lane id=":J27_11_0" index="0" speed="13.89" length="24.11" shape="-292.64,-28.19 -292.37,-52.23"/>
        <lane id=":J27_11_1" index="1" speed="13.89" length="24.11" shape="-289.44,-28.09 -289.17,-52.20"/>
        <lane id=":J27_11_2" index="2" speed="13.89" length="24.11" shape="-286.24,-27.98 -285.97,-52.16"/>
    </edge>
    <edge id=":J27_14" function="internal">
        <lane id=":J27_14_0" index="0" speed="10.96" length="27.13" shape="-283.04,-27.87 -281.44,-30.50 -276.71,-32.41 -268.85,-33.60 -257.87,-34.07"/>
    </edge>
    <edge id=":J34_0" function="internal">
        <lane id=":J34_0_0" index="0" speed="6.68" length="9.47" shape="-292.70,17.60 -293.10,14.99 -294.21,13.14 -296.02,12.03 -298.54,11.66"/>
    </edge>
    <edge id=":J34_1" function="internal">
        <lane id=":J34_1_0" index="0" speed="13.89" length="21.44" shape="-289.50,17.55 -289.73,-3.98"/>
        <lane id=":J34_1_1" index="1" speed="13.89" length="21.44" shape="-286.30,17.50 -286.53,-3.94"/>
        <lane id=":J34_1_2" index="2" speed="13.89" length="21.44" shape="-283.10,17.45 -283.33,-3.90"/>
    </edge>
    <edge id=":J34_4" function="internal">
        <lane id=":J34_4_0" index="0" speed="6.48" length="9.03" shape="-258.39,11.53 -260.85,11.89 -262.59,12.95 -263.61,14.71 -263.93,17.17"/>
        <lane id=":J34_4_1" index="1" speed="7.98" length="14.24" shape="-258.40,8.33 -262.27,8.90 -265.01,10.57 -266.63,13.34 -267.13,17.22"/>
    </edge>
    <edge id=":J34_6" function="internal">
        <lane id=":J34_6_0" index="0" speed="13.89" length="40.15" shape="-258.41,5.13 -298.56,5.26"/>
    </edge>
    <edge id=":J34_7" function="internal">
        <lane id=":J34_7_0" index="0" speed="10.76" length="26.81" shape="-258.42,1.93 -269.34,1.60 -277.14,0.51 -281.80,-1.32 -283.33,-3.90"/>
    </edge>
    <edge id=":J34_8" function="internal">
        <lane id=":J34_8_0" index="0" speed="13.89" length="20.93" shape="-264.19,-3.67 -263.93,17.17"/>
        <lane id=":J34_8_1" index="1" speed="13.89" length="20.93" shape="-267.39,-3.71 -267.13,17.22"/>
        <lane id=":J34_8_2" index="2" speed="13.89" length="20.93" shape="-270.59,-3.75 -270.33,17.26"/>
    </edge>
    <edge id=":J34_11" function="internal">
        <lane id=":J34_11_0" index="0" speed="10.57" length="25.53" shape="-276.99,-3.83 -278.33,0.12 -282.37,2.95 -289.12,4.66 -298.56,5.26"/>
        <lane id=":J34_11_1" index="1" speed="9.55" length="20.63" shape="-280.19,-3.86 -281.34,-1.30 -284.78,0.55 -290.53,1.67 -298.58,2.06"/>
    </edge>

    <edge id="E24" from="J24" to="J27" priority="-1">
        <lane id="E24_0" index="0" speed="13.89" length="109.32" shape="-407.53,-46.46 -298.22,-46.64"/>
        <lane id="E24_1" index="1" speed="13.89" length="109.32" shape="-407.53,-43.26 -298.21,-43.44"/>
        <lane id="E24_2" index="2" speed="13.89" length="109.32" shape="-407.52,-40.06 -298.20,-40.24"/>
        <lane id="E24_3" index="3" speed="13.89" length="109.32" shape="-407.52,-36.86 -298.20,-37.04"/>
        <lane id="E24_4" index="4" speed="13.89" length="109.32" shape="-407.51,-33.66 -298.19,-33.84"/>
    </edge>
    <edge id="E27" from="J27" to="J28" priority="-1">
        <lane id="E27_0" index="0" speed="13.89" length="120.11" shape="-257.95,-43.67 -137.85,-44.69"/>
        <lane id="E27_1" index="1" speed="13.89" length="120.11" shape="-257.92,-40.47 -137.82,-41.49"/>
        <lane id="E27_2" index="2" speed="13.89" length="120.11" shape="-257.89,-37.27 -137.79,-38.29"/>
        <lane id="E27_3" index="3" speed="13.89" length="120.11" shape="-257.87,-34.07 -137.76,-35.09"/>
    </edge>
    <edge id="E28" from="J27" to="J36" priority="-1">
        <lane id="E28_0" index="0" speed="13.89" length="78.56" shape="-292.37,-52.23 -291.52,-130.78"/>
        <lane id="E28_1" index="1" speed="13.89" length="78.56" shape="-289.17,-52.20 -288.32,-130.75"/>
        <lane id="E28_2" index="2" speed="13.89" length="78.56" shape="-285.97,-52.16 -285.12,-130.71"/>
        <lane id="E28_3" index="3" speed="13.89" length="78.56" shape="-282.77,-52.13 -281.92,-130.68"/>
    </edge>
    <edge id="E29" from="J34" to="J27" priority="-1">
        <lane id="E29_0" index="0" speed="13.89" length="24.07" shape="-292.93,-4.02 -292.64,-28.19"/>
        <lane id="E29_1" index="1" speed="13.89" length="24.07" shape="-289.73,-3.98 -289.44,-28.09"/>
        <lane id="E29_2" index="2" speed="13.89" length="24.07" shape="-286.53,-3.94 -286.24,-27.98"/>
        <lane id="E29_3" index="3" speed="13.89" length="24.07" shape="-283.33,-3.90 -283.04,-27.87"/>
    </edge>
    <edge id="E30" from="J37" to="J34" priority="-1">
        <lane id="E30_0" index="0" speed="13.89" length="118.98" shape="-290.78,136.57 -292.70,17.60"/>
        <lane id="E30_1" index="1" speed="13.89" length="118.98" shape="-287.58,136.52 -289.50,17.55"/>
        <lane id="E30_2" index="2" speed="13.89" length="118.98" shape="-284.38,136.47 -286.30,17.50"/>
        <lane id="E30_3" index="3" speed="13.89" length="118.98" shape="-281.18,136.42 -283.10,17.45"/>
    </edge>
    <edge id="E31" from="J34" to="J32" priority="-1">
        <lane id="E31_0" index="0" speed="13.89" length="110.22" shape="-298.54,11.66 -408.76,12.07"/>
        <lane id="E31_1" index="1" speed="13.89" length="110.22" shape="-298.55,8.46 -408.77,8.87"/>
        <lane id="E31_2" index="2" speed="13.89" length="110.22" shape="-298.56,5.26 -408.78,5.67"/>
        <lane id="E31_3" index="3" speed="13.89" length="110.22" shape="-298.58,2.06 -408.79,2.47"/>
    </edge>
    <edge id="E32" from="J33" to="J34" priority="-1">
        <lane id="E32_0" index="0" speed="13.89" length="120.07" shape="-138.32,11.20 -258.39,11.53"/>
        <lane id="E32_1" index="1" speed="13.89" length="120.07" shape="-138.33,8.00 -258.40,8.33"/>
        <lane id="E32_2" index="2" speed="13.89" length="120.07" shape="-138.34,4.80 -258.41,5.13"/>
        <lane id="E32_3" index="3" speed="13.89" length="120.07" shape="-138.35,1.60 -258.42,1.93"/>
    </edge>
    <edge id="E35.61" from="J36" to="J27" priority="-1" shape="-280.32,-130.66 -281.29,-32.17">
        <lane id="E35.61_0" index="0" speed="13.89" length="78.56" shape="-262.72,-130.49 -263.49,-51.92"/>
        <lane id="E35.61_1" index="1" speed="13.89" length="78.56" shape="-265.92,-130.52 -266.69,-51.95"/>
        <lane id="E35.61_2" index="2" speed="13.89" length="78.56" shape="-269.12,-130.55 -269.89,-51.99"/>
        <lane id="E35.61_3" index="3" speed="13.89" length="78.56" shape="-272.32,-130.58 -273.09,-52.02"/>
        <lane id="E35.61_4" index="4" speed="13.89" length="78.56" shape="-275.52,-130.61 -276.29,-52.06"/>
        <lane id="E35.61_5" index="5" speed="13.89" length="78.56" shape="-278.72,-130.64 -279.49,-52.09"/>
    </edge>
    <edge id="E36" from="J27" to="J0" priority="-1">
        <lane id="E36_0" index="0" speed="13.89" length="8.22" shape="-263.95,-27.22 -264.23,-19.00"/>
        <lane id="E36_1" index="1" speed="13.89" length="8.22" shape="-267.15,-27.33 -267.43,-19.11"/>
        <lane id="E36_2" index="2" speed="13.89" length="8.22" shape="-270.35,-27.44 -270.63,-19.22"/>
        <lane id="E36_3" index="3" speed="13.89" length="8.22" shape="-273.55,-27.55 -273.82,-19.33"/>
        <lane id="E36_4" index="4" speed="13.89" length="8.22" shape="-276.74,-27.65 -277.02,-19.43"/>
        <lane id="E36_5" index="5" speed="13.89" length="8.22" shape="-279.94,-27.76 -280.22,-19.54"/>
    </edge>
    <edge id="E36.31" from="J0" to="J34" priority="-1">
        <lane id="E36.31_0" index="0" speed="13.89" length="14.68" shape="-264.24,-18.48 -264.19,-3.67"/>
        <lane id="E36.31_1" index="1" speed="13.89" length="14.68" shape="-267.44,-18.47 -267.39,-3.71"/>
        <lane id="E36.31_2" index="2" speed="13.89" length="14.68" shape="-270.64,-18.46 -270.59,-3.75"/>
        <lane id="E36.31_3" index="3" speed="13.89" length="14.68" shape="-273.84,-18.45 -273.79,-3.79"/>
        <lane id="E36.31_4" index="4" speed="13.89" length="14.68" shape="-277.04,-18.44 -276.99,-3.83"/>
        <lane id="E36.31_5" index="5" speed="13.89" length="14.68" shape="-280.24,-18.43 -280.19,-3.86"/>
    </edge>
    <edge id="E37" from="J34" to="J37" priority="-1" shape="-281.78,0.40 -280.55,83.01 -280.59,87.46 -279.58,136.39">
        <lane id="E37_0" index="0" speed="13.89" length="118.92" shape="-263.93,17.17 -262.95,82.96 -262.99,87.36 -261.98,136.03"/>
        <lane id="E37_1" index="1" speed="13.89" length="118.92" shape="-267.13,17.22 -266.15,82.97 -266.19,87.38 -265.18,136.09"/>
        <lane id="E37_2" index="2" speed="13.89" length="118.92" shape="-270.33,17.26 -269.35,82.98 -269.39,87.39 -268.38,136.16"/>
        <lane id="E37_3" index="3" speed="13.89" length="118.92" shape="-273.53,17.31 -272.55,82.99 -272.59,87.41 -271.58,136.22"/>
        <lane id="E37_4" index="4" speed="13.89" length="118.92" shape="-276.73,17.36 -275.75,83.00 -275.79,87.43 -274.78,136.29"/>
        <lane id="E37_5" index="5" speed="13.89" length="118.92" shape="-279.93,17.41 -278.95,83.01 -278.99,87.45 -277.98,136.36"/>
    </edge>

    <tlLogic id="J27" type="actuated" programID="0" offset="0">
        <phase duration="90" state="GGGGGGGGrrrrrrr" minDur="5" maxDur="50"/>
        <phase duration="8"  state="yyyyyyrrrrrrrrr"/>
        <phase duration="40" state="rrrrrrGGGGGrrrr" minDur="5" maxDur="50"/>
        <phase duration="5"  state="rrrrrryyyyyrrrr"/>
        <phase duration="53" state="rrrrrrrrrrrGGGG" minDur="5" maxDur="50"/>
        <phase duration="4"  state="rrrrrrrrrrryyyy"/>
    </tlLogic>
    <tlLogic id="J34" type="actuated" programID="0" offset="0">
        <phase duration="90" state="rrrrrrrrrGGGGG" minDur="5" maxDur="50"/>
        <phase duration="8"  state="rrrrrrrrryyyyy"/>
        <phase duration="40" state="rrrrGGGGGrrrrr" minDur="5" maxDur="50"/>
        <phase duration="3"  state="rrrryyyyyrrrrr"/>
        <phase duration="53" state="GGGGrrrrGrrrrr" minDur="5" maxDur="50"/>
        <phase duration="4"  state="yyyyrrrryrrrrr"/>
    </tlLogic>

    <junction id="J0" type="priority" x="-281.84" y="-19.01" incLanes="E36_0 E36_1 E36_2 E36_3 E36_4 E36_5" intLanes=":J0_0_0 :J0_0_1 :J0_0_2 :J0_0_3 :J0_0_4 :J0_0_5" shape="-281.84,-18.42 -262.64,-18.48 -262.63,-18.95 -281.82,-19.60">
        <request index="0" response="000000" foes="000000" cont="0"/>
        <request index="1" response="000000" foes="000000" cont="0"/>
        <request index="2" response="001000" foes="001000" cont="0"/>
        <request index="3" response="000000" foes="000100" cont="0"/>
        <request index="4" response="000000" foes="000000" cont="0"/>
        <request index="5" response="000000" foes="000000" cont="0"/>
    </junction>
    <junction id="J24" type="dead_end" x="-407.51" y="-32.06" incLanes="" intLanes="" shape="-407.51,-32.06 -407.54,-48.06"/>
    <junction id="J27" type="traffic_light" x="-281.39" y="-32.27" incLanes="E35.61_0 E35.61_1 E35.61_2 E35.61_3 E35.61_4 E35.61_5 E24_0 E24_1 E24_2 E24_3 E24_4 E29_0 E29_1 E29_2 E29_3" intLanes=":J27_0_0 :J27_1_0 :J27_1_1 :J27_1_2 :J27_1_3 :J27_1_4 :J27_6_0 :J27_6_1 :J27_8_0 :J27_8_1 :J27_10_0 :J27_11_0 :J27_11_1 :J27_11_2 :J27_14_0" shape="-257.85,-32.47 -257.96,-45.27 -260.18,-45.99 -260.94,-46.91 -261.49,-48.20 -261.80,-49.86 -261.89,-51.90 -293.97,-52.25 -294.46,-50.03 -295.06,-49.25 -295.88,-48.69 -296.93,-48.36 -298.22,-48.24 -298.19,-32.24 -295.97,-31.80 -295.20,-31.25 -294.66,-30.47 -294.34,-29.47 -294.24,-28.25 -262.35,-27.17 -261.77,-30.10 -261.14,-31.13 -260.27,-31.86 -259.18,-32.31">
        <request index="0"  response="000000000000000" foes="000001100000000" cont="0"/>
        <request index="1"  response="000000000000000" foes="100011100000000" cont="0"/>
        <request index="2"  response="000000000000000" foes="100011100000000" cont="0"/>
        <request index="3"  response="000000000000000" foes="100011100000000" cont="0"/>
        <request index="4"  response="000000000000000" foes="100011100000000" cont="0"/>
        <request index="5"  response="000000000000000" foes="100011100000000" cont="0"/>
        <request index="6"  response="011100000000000" foes="011100000000000" cont="0"/>
        <request index="7"  response="011100000000000" foes="011100000000000" cont="0"/>
        <request index="8"  response="011100000111111" foes="011100000111111" cont="0"/>
        <request index="9"  response="011100000111111" foes="011100000111111" cont="0"/>
        <request index="10" response="111100000111110" foes="111100000111110" cont="0"/>
        <request index="11" response="000000000000000" foes="000011111000000" cont="0"/>
        <request index="12" response="000000000000000" foes="000011111000000" cont="0"/>
        <request index="13" response="000000000000000" foes="000011111000000" cont="0"/>
        <request index="14" response="000000000111110" foes="000010000111110" cont="0"/>
    </junction>
    <junction id="J28" type="dead_end" x="-137.75" y="-33.49" incLanes="E27_0 E27_1 E27_2 E27_3" intLanes="" shape="-137.86,-46.29 -137.75,-33.49"/>
    <junction id="J32" type="dead_end" x="-408.80" y="0.87" incLanes="E31_0 E31_1 E31_2 E31_3" intLanes="" shape="-408.75,13.67 -408.80,0.87"/>
    <junction id="J33" type="dead_end" x="-138.35" y="0.00" incLanes="" intLanes="" shape="-138.35,0.00 -138.31,12.80"/>
    <junction id="J34" type="traffic_light" x="-281.78" y="0.40" incLanes="E30_0 E30_1 E30_2 E30_3 E32_0 E32_1 E32_2 E32_3 E36.31_0 E36.31_1 E36.31_2 E36.31_3 E36.31_4 E36.31_5" intLanes=":J34_0_0 :J34_1_0 :J34_1_1 :J34_1_2 :J34_4_0 :J34_4_1 :J34_6_0 :J34_7_0 :J34_8_0 :J34_8_1 :J34_8_2 :J34_11_0 :J34_11_1" shape="-294.30,17.62 -262.33,17.15 -261.92,14.92 -261.37,14.14 -260.60,13.59 -259.61,13.25 -258.39,13.13 -258.42,0.33 -260.73,-0.10 -261.54,-0.66 -262.12,-1.43 -262.47,-2.43 -262.59,-3.65 -294.53,-4.04 -295.00,-1.54 -295.57,-0.67 -296.35,-0.04 -297.36,0.33 -298.58,0.46 -298.53,13.26 -296.21,13.74 -295.40,14.34 -294.80,15.19 -294.44,16.29">
        <request index="0"  response="0000000000000" foes="0000000000000" cont="0"/>
        <request index="1"  response="0000000000000" foes="1100011000000" cont="0"/>
        <request index="2"  response="0000000000000" foes="1100011000000" cont="0"/>
        <request index="3"  response="0000000000000" foes="1100011000000" cont="0"/>
        <request index="4"  response="0011100000000" foes="0011100000000" cont="0"/>
        <request index="5"  response="0011100000000" foes="0011100000000" cont="0"/>
        <request index="6"  response="1111100001110" foes="1111100001110" cont="0"/>
        <request index="7"  response="1111100001110" foes="1111100001110" cont="0"/>
        <request index="8"  response="0000000000000" foes="0000011110000" cont="0"/>
        <request index="9"  response="0000000000000" foes="0000011110000" cont="0"/>
        <request index="10" response="0000000000000" foes="0000011110000" cont="0"/>
        <request index="11" response="0000000001110" foes="0000011001110" cont="0"/>
        <request index="12" response="0000000001110" foes="0000011001110" cont="0"/>
    </junction>
    <junction id="J36" type="dead_end" x="-280.32" y="-130.66" incLanes="E28_0 E28_1 E28_2 E28_3" intLanes="" shape="-280.32,-130.66 -261.12,-130.47 -293.12,-130.80"/>
    <junction id="J37" type="dead_end" x="-279.58" y="136.39" incLanes="E37_0 E37_1 E37_2 E37_3 E37_4 E37_5" intLanes="" shape="-279.58,136.39 -292.38,136.60 -260.38,135.99"/>

    <connection from="E24" to="E28" fromLane="0" toLane="1" via=":J27_6_0" tl="J27" linkIndex="6" dir="r" state="o"/>
    <connection from="E24" to="E28" fromLane="1" toLane="2" via=":J27_6_1" tl="J27" linkIndex="7" dir="r" state="o"/>
    <connection from="E24" to="E27" fromLane="2" toLane="1" via=":J27_8_0" tl="J27" linkIndex="8" dir="s" state="o"/>
    <connection from="E24" to="E27" fromLane="3" toLane="2" via=":J27_8_1" tl="J27" linkIndex="9" dir="s" state="o"/>
    <connection from="E24" to="E36" fromLane="4" toLane="5" via=":J27_10_0" tl="J27" linkIndex="10" dir="l" state="o"/>
    <connection from="E29" to="E28" fromLane="0" toLane="0" via=":J27_11_0" tl="J27" linkIndex="11" dir="s" state="O"/>
    <connection from="E29" to="E28" fromLane="1" toLane="1" via=":J27_11_1" tl="J27" linkIndex="12" dir="s" state="O"/>
    <connection from="E29" to="E28" fromLane="2" toLane="2" via=":J27_11_2" tl="J27" linkIndex="13" dir="s" state="O"/>
    <connection from="E29" to="E27" fromLane="3" toLane="3" via=":J27_14_0" tl="J27" linkIndex="14" dir="l" state="o"/>
    <connection from="E30" to="E31" fromLane="0" toLane="0" via=":J34_0_0" tl="J34" linkIndex="0" dir="r" state="O"/>
    <connection from="E30" to="E29" fromLane="1" toLane="1" via=":J34_1_0" tl="J34" linkIndex="1" dir="s" state="O"/>
    <connection from="E30" to="E29" fromLane="2" toLane="2" via=":J34_1_1" tl="J34" linkIndex="2" dir="s" state="O"/>
    <connection from="E30" to="E29" fromLane="3" toLane="3" via=":J34_1_2" tl="J34" linkIndex="3" dir="s" state="O"/>
    <connection from="E32" to="E37" fromLane="0" toLane="0" via=":J34_4_0" tl="J34" linkIndex="4" dir="r" state="o"/>
    <connection from="E32" to="E37" fromLane="1" toLane="1" via=":J34_4_1" tl="J34" linkIndex="5" dir="r" state="o"/>
    <connection from="E32" to="E31" fromLane="2" toLane="2" via=":J34_6_0" tl="J34" linkIndex="6" dir="s" state="o"/>
    <connection from="E32" to="E29" fromLane="3" toLane="3" via=":J34_7_0" tl="J34" linkIndex="8" dir="l" state="o"/>
    <connection from="E35.61" to="E27" fromLane="0" toLane="1" via=":J27_0_0" tl="J27" linkIndex="0" dir="r" state="O"/>
    <connection from="E35.61" to="E36" fromLane="1" toLane="1" via=":J27_1_0" tl="J27" linkIndex="1" dir="s" state="O"/>
    <connection from="E35.61" to="E36" fromLane="2" toLane="2" via=":J27_1_1" tl="J27" linkIndex="2" dir="s" state="O"/>
    <connection from="E35.61" to="E36" fromLane="3" toLane="3" via=":J27_1_2" tl="J27" linkIndex="3" dir="s" state="O"/>
    <connection from="E35.61" to="E36" fromLane="4" toLane="4" via=":J27_1_3" tl="J27" linkIndex="4" dir="s" state="O"/>
    <connection from="E35.61" to="E36" fromLane="5" toLane="5" via=":J27_1_4" tl="J27" linkIndex="5" dir="s" state="O"/>
    <connection from="E36" to="E36.31" fromLane="0" toLane="0" via=":J0_0_0" dir="s" state="M"/>
    <connection from="E36" to="E36.31" fromLane="1" toLane="1" via=":J0_0_1" dir="s" state="M"/>
    <connection from="E36" to="E36.31" fromLane="2" toLane="2" via=":J0_0_2" dir="s" state="m"/>
    <connection from="E36" to="E36.31" fromLane="3" toLane="2" via=":J0_0_3" dir="s" state="M"/>
    <connection from="E36" to="E36.31" fromLane="4" toLane="4" via=":J0_0_4" dir="s" state="M"/>
    <connection from="E36" to="E36.31" fromLane="5" toLane="5" via=":J0_0_5" dir="s" state="M"/>
    <connection from="E36.31" to="E37" fromLane="0" toLane="0" via=":J34_8_0" tl="J34" linkIndex="9" dir="s" state="O"/>
    <connection from="E36.31" to="E37" fromLane="1" toLane="1" via=":J34_8_1" tl="J34" linkIndex="10" dir="s" state="O"/>
    <connection from="E36.31" to="E37" fromLane="2" toLane="2" via=":J34_8_2" tl="J34" linkIndex="11" dir="s" state="O"/>
    <connection from="E36.31" to="E31" fromLane="4" toLane="2" via=":J34_11_0" tl="J34" linkIndex="12" dir="l" state="o"/>
    <connection from="E36.31" to="E31" fromLane="5" toLane="3" via=":J34_11_1" tl="J34" linkIndex="13" dir="l" state="o"/>

    <connection from=":J0_0" to="E36.31" fromLane="0" toLane="0" dir="s" state="M"/>
    <connection from=":J0_0" to="E36.31" fromLane="1" toLane="1" dir="s" state="M"/>
    <connection from=":J0_0" to="E36.31" fromLane="2" toLane="2" dir="s" state="M"/>
    <connection from=":J0_0" to="E36.31" fromLane="3" toLane="2" dir="s" state="M"/>
    <connection from=":J0_0" to="E36.31" fromLane="4" toLane="4" dir="s" state="M"/>
    <connection from=":J0_0" to="E36.31" fromLane="5" toLane="5" dir="s" state="M"/>
    <connection from=":J27_0" to="E27" fromLane="0" toLane="1" dir="r" state="M"/>
    <connection from=":J27_1" to="E36" fromLane="0" toLane="1" dir="s" state="M"/>
    <connection from=":J27_1" to="E36" fromLane="1" toLane="2" dir="s" state="M"/>
    <connection from=":J27_1" to="E36" fromLane="2" toLane="3" dir="s" state="M"/>
    <connection from=":J27_1" to="E36" fromLane="3" toLane="4" dir="s" state="M"/>
    <connection from=":J27_1" to="E36" fromLane="4" toLane="5" dir="s" state="M"/>
    <connection from=":J27_6" to="E28" fromLane="0" toLane="1" dir="r" state="M"/>
    <connection from=":J27_6" to="E28" fromLane="1" toLane="2" dir="r" state="M"/>
    <connection from=":J27_8" to="E27" fromLane="0" toLane="1" dir="s" state="M"/>
    <connection from=":J27_8" to="E27" fromLane="1" toLane="2" dir="s" state="M"/>
    <connection from=":J27_10" to="E36" fromLane="0" toLane="5" dir="l" state="M"/>
    <connection from=":J27_11" to="E28" fromLane="0" toLane="0" dir="s" state="M"/>
    <connection from=":J27_11" to="E28" fromLane="1" toLane="1" dir="s" state="M"/>
    <connection from=":J27_11" to="E28" fromLane="2" toLane="2" dir="s" state="M"/>
    <connection from=":J27_14" to="E27" fromLane="0" toLane="3" dir="l" state="M"/>
    <connection from=":J34_0" to="E31" fromLane="0" toLane="0" dir="r" state="M"/>
    <connection from=":J34_1" to="E29" fromLane="0" toLane="1" dir="s" state="M"/>
    <connection from=":J34_1" to="E29" fromLane="1" toLane="2" dir="s" state="M"/>
    <connection from=":J34_1" to="E29" fromLane="2" toLane="3" dir="s" state="M"/>
    <connection from=":J34_4" to="E37" fromLane="0" toLane="0" dir="r" state="M"/>
    <connection from=":J34_4" to="E37" fromLane="1" toLane="1" dir="r" state="M"/>
    <connection from=":J34_6" to="E31" fromLane="0" toLane="2" dir="s" state="M"/>
    <connection from=":J34_7" to="E29" fromLane="0" toLane="3" dir="l" state="M"/>
    <connection from=":J34_8" to="E37" fromLane="0" toLane="0" dir="s" state="M"/>
    <connection from=":J34_8" to="E37" fromLane="1" toLane="1" dir="s" state="M"/>
    <connection from=":J34_8" to="E37" fromLane="2" toLane="2" dir="s" state="M"/>
    <connection from=":J34_11" to="E31" fromLane="0" toLane="2" dir="l" state="M"/>
    <connection from=":J34_11" to="E31" fromLane="1" toLane="3" dir="l" state="M"/>

</net>
