<?xml version="1.0" encoding="UTF-8"?>

<!-- generated on 2023-11-10 15:38:30 by Eclipse SUMO netedit Version 1.18.0
-->

<routes xmlns:xsi="http://www.w3.org/2001/XMLSchema-instance" xsi:noNamespaceSchemaLocation="http://sumo.dlr.de/xsd/routes_file.xsd">
    <!-- Vehicles, persons and containers (sorted by depart) -->
    <flow id="f_0" begin="0.00" from="E35.61" to="E37" end="3600.00" vehsPerHour="1400.23"/>
    <flow id="f_1" begin="0.00" from="E35.61" to="E27" end="3600.00" vehsPerHour="400.00"/>
    <flow id="f_10" begin="0.00" from="E24" to="E28" end="3600.00" vehsPerHour="600.00"/>
    <flow id="f_11" begin="0.00" from="E24" to="E37" end="3600.00" vehsPerHour="900.00"/>
    <flow id="f_2" begin="0.00" from="E35.61" to="E31" end="3600.00" vehsPerHour="699.98"/>
    <flow id="f_3" begin="0.00" from="E32" to="E31" end="3600.00" vehsPerHour="500.00"/>
    <flow id="f_4" begin="0.00" from="E32" to="E37" end="3600.00" vehsPerHour="699.98"/>
    <flow id="f_5" begin="0.00" from="E32" to="E28" end="3600.00" number="300"/>
    <flow id="f_6" begin="0.00" from="E30" to="E31" end="3600.00" vehsPerHour="600.00"/>
    <flow id="f_7" begin="0.00" from="E30" to="E27" end="3600.00" vehsPerHour="300.00"/>
    <flow id="f_8" begin="0.00" from="E30" to="E28" end="3600.00" vehsPerHour="900.00"/>
    <flow id="f_9" begin="0.00" from="E24" to="E27" end="3600.00" vehsPerHour="300.00"/>
</routes>
