<?xml version="1.0" encoding="UTF-8"?>

<!-- generated on 2023-11-10 15:38:30 by Eclipse SUMO sumo Version 1.18.0
-->

<configuration xmlns:xsi="http://www.w3.org/2001/XMLSchema-instance" xsi:noNamespaceSchemaLocation="http://sumo.dlr.de/xsd/sumoConfiguration.xsd">

    <input>
        <net-file value="Real-JilongXinyi.net.xml"/>
        <route-files value="Real-JilongXinyi.rou.xml"/>
    </input>

</configuration>
