<?xml version="1.0" encoding="UTF-8"?>

<!-- generated on 2023-11-01 22:18:41 by Eclipse SUMO netedit Version 1.18.0
-->

<routes xmlns:xsi="http://www.w3.org/2001/XMLSchema-instance" xsi:noNamespaceSchemaLocation="http://sumo.dlr.de/xsd/routes_file.xsd">
    <!-- VTypes -->
    <vType id="t_0" vClass="moped"/>
    <vType id="t_1"/>
    <!-- Vehicles, persons and containers (sorted by depart) -->
    <flow id="f_0" begin="0.00" from="-E8" to="-E5" end="3600.00" vehsPerHour="1800.00"/>
    <flow id="f_1" begin="0.00" from="-E8" to="E60.7" end="3600.00" vehsPerHour="1800.00"/>
    <flow id="f_10" begin="0.00" from="E5" to="E7" end="3600.00" vehsPerHour="1800.00"/>
    <flow id="f_11" begin="0.00" from="E5" to="E8" end="3600.00" vehsPerHour="1800.00"/>
    <flow id="f_12" type="t_0" begin="0.00" from="-E7" to="E60.7" end="3600.00" vehsPerHour="1800.00"/>
    <flow id="f_13" type="t_0" begin="0.00" from="-E7" to="-E5" end="3600.00" vehsPerHour="1800.00"/>
    <flow id="f_14" type="t_0" begin="0.00" from="-E7" to="E8" end="3600.00" vehsPerHour="1800.00"/>
    <flow id="f_15" type="t_0" begin="0.00" from="-E8" to="-E5" end="3600.00" vehsPerHour="1800.00"/>
    <flow id="f_16" type="t_0" begin="0.00" from="-E8" to="E60.7" end="3600.00" vehsPerHour="1800.00"/>
    <flow id="f_17" type="t_0" begin="0.00" from="-E8" to="E7" end="3600.00" vehsPerHour="1800.00"/>
    <flow id="f_18" type="t_0" begin="0.00" from="E5" to="E60.7" end="3600.00" vehsPerHour="1800.00"/>
    <flow id="f_19" type="t_0" begin="0.00" from="E5" to="E7" end="3600.00" vehsPerHour="1800.00"/>
    <flow id="f_2" begin="0.00" from="-E8" to="E7" end="3600.00" vehsPerHour="1800.00"/>
    <flow id="f_20" type="t_0" begin="0.00" from="E5" to="E8" end="3600.00" vehsPerHour="1800.00"/>
    <flow id="f_21" type="t_0" begin="0.00" from="-E6" to="-E5" end="3600.00" vehsPerHour="1800.00"/>
    <flow id="f_22" type="t_0" begin="0.00" from="-E6" to="E8" end="3600.00" vehsPerHour="1800.00"/>
    <flow id="f_23" type="t_0" begin="0.00" from="-E6" to="E7" end="3600.00" vehsPerHour="1800.00"/>
    <flow id="f_3" begin="0.00" from="-E7" to="E60.7" end="3600.00" vehsPerHour="1800.00"/>
    <flow id="f_4" begin="0.00" from="-E7" to="-E5" end="3600.00" vehsPerHour="1800.00"/>
    <flow id="f_5" begin="0.00" from="-E7" to="E8" end="3600.00" vehsPerHour="1800.00"/>
    <flow id="f_6" begin="0.00" from="-E6" to="-E5" end="3600.00" vehsPerHour="1800.00"/>
    <flow id="f_7" begin="0.00" from="-E6" to="E7" end="3600.00" vehsPerHour="1800.00"/>
    <flow id="f_8" begin="0.00" from="-E6" to="E8" end="3600.00" vehsPerHour="1800.00"/>
    <flow id="f_9" begin="0.00" from="E5" to="E60.7" end="3600.00" vehsPerHour="1800.00"/>
</routes>
