<?xml version="1.0" encoding="UTF-8"?>

<!-- generated on 2023-11-02 16:34:07 by Eclipse SUMO sumo Version 1.18.0
-->

<configuration xmlns:xsi="http://www.w3.org/2001/XMLSchema-instance" xsi:noNamespaceSchemaLocation="http://sumo.dlr.de/xsd/sumoConfiguration.xsd">

    <input>
        <net-file value="test4.net.xml"/>
        <route-files value="car.rou.xml"/>
    </input>

    <processing>
        <lateral-resolution value="1.5"/>
    </processing>

</configuration>
