<?xml version="1.0" encoding="UTF-8"?>

<!-- generated on 2023-10-26 14:50:20 by Eclipse SUMO netedit Version 1.18.0
-->

<routes xmlns:xsi="http://www.w3.org/2001/XMLSchema-instance" xsi:noNamespaceSchemaLocation="http://sumo.dlr.de/xsd/routes_file.xsd">
    <!-- Vehicles, persons and containers (sorted by depart) -->
    <trip id="t_0" depart="0.00" from="E0" to="-E2"/>
    <trip id="t_1" depart="0.00" from="E0" to="E1"/>
    <trip id="t_2" depart="0.00" from="E15" to="E17" via="E16"/>
    <trip id="t_3" depart="0.00" from="E15" to="E19"/>
    <trip id="t_4" depart="0.00" from="E15" to="E20" via="E18"/>
    <trip id="t_5" depart="0.00" from="E15" to="E19" via="E18"/>
    <trip id="t_6" depart="0.00" from="E15" to="E19" via="E18"/>
    <trip id="t_7" depart="0.00" from="E15" to="E20" via="E16 E17"/>
    <flow id="f_0" begin="0.00" from="E2" to="-E0" end="3600.00" vehsPerHour="1800.00"/>
    <flow id="f_1" begin="0.00" from="E2" to="E1" end="3600.00" vehsPerHour="1800.00"/>
    <flow id="f_2" begin="0.00" from="-E3" to="E1" end="3600.00" vehsPerHour="1800.00"/>
    <flow id="f_3" begin="0.00" from="-E3" to="-E0" end="3600.00" vehsPerHour="1800.00"/>
    <flow id="f_4" begin="0.00" from="E15" to="E20" via="E16 E17" end="3600.00" vehsPerHour="1800.00"/>
    <flow id="f_5" begin="0.00" from="E15" to="E19" via="E18" end="3600.00" vehsPerHour="1800.00"/>
    <flow id="f_6" begin="0.00" from="E21" to="E20" end="3600.00" vehsPerHour="1800.00"/>
    <flow id="f_7" begin="0.00" from="E15" to="E20" end="3600.00" vehsPerHour="1800.00"/>
    <flow id="f_8" begin="0.00" from="E15" to="E20" via="E16 E17" end="3600.00" vehsPerHour="1800.00"/>
</routes>
