<?xml version="1.0" encoding="UTF-8"?>

<!-- generated on 2023-10-31 02:22:15 by Eclipse SUMO netedit Version 1.18.0
<configuration xmlns:xsi="http://www.w3.org/2001/XMLSchema-instance" xsi:noNamespaceSchemaLocation="http://sumo.dlr.de/xsd/neteditConfiguration.xsd">

    <input>
        <sumocfg-file value="C:\Program Files (x86)\Eclipse\Sumo\thesis_test\tesis2.sumocfg"/>
        <additional-files value="C:\Program Files (x86)\Eclipse\Sumo\thesis_test\tesis2.add.xml"/>
        <route-files value="C:\Program Files (x86)\Eclipse\Sumo\thesis_test\tesis2.rou.xml"/>
        <sumo-net-file value="C:\Program Files (x86)\Eclipse\Sumo\thesis_test\tesis2.net.xml"/>
    </input>

    <output>
        <output-file value="C:\Program Files (x86)\Eclipse\Sumo\thesis_test\tesis2.net.xml"/>
    </output>

    <processing>
        <geometry.min-radius.fix.railways value="false"/>
        <geometry.max-grade.fix value="false"/>
        <offset.disable-normalization value="true"/>
        <lefthand value="0"/>
    </processing>

    <junctions>
        <no-turnarounds value="true"/>
        <junctions.corner-detail value="5"/>
        <junctions.limit-turn-speed value="5.50"/>
        <rectangular-lane-cut value="0"/>
    </junctions>

    <pedestrian>
        <walkingareas value="0"/>
    </pedestrian>

</configuration>
-->

<net version="1.16" junctionCornerDetail="5" limitTurnSpeed="5.50" xmlns:xsi="http://www.w3.org/2001/XMLSchema-instance" xsi:noNamespaceSchemaLocation="http://sumo.dlr.de/xsd/net_file.xsd">

    <location netOffset="0.00,0.00" convBoundary="56.00,-1071.23,1308.54,83.02" origBoundary="-10000000000.00,-10000000000.00,10000000000.00,10000000000.00" projParameter="!"/>

    <edge id=":J1_0" function="internal">
        <lane id=":J1_0_0" index="0" speed="7.70" length="7.49" shape="118.02,40.77 119.56,40.66 121.11,40.02 122.66,38.84 124.21,37.12"/>
    </edge>
    <edge id=":J1_1" function="internal">
        <lane id=":J1_1_0" index="0" speed="13.89" length="8.14" shape="118.02,40.77 126.13,41.69"/>
        <lane id=":J1_1_1" index="1" speed="13.89" length="8.14" shape="117.68,43.95 125.77,44.87"/>
        <lane id=":J1_1_2" index="2" speed="13.89" length="8.14" shape="117.34,47.13 125.40,48.05"/>
    </edge>
    <edge id=":J10_0" function="internal">
        <lane id=":J10_0_0" index="0" speed="5.87" length="9.11" shape="220.66,-62.29 220.12,-59.69 220.64,-57.85 222.21,-56.77 224.83,-56.43"/>
    </edge>
    <edge id=":J10_1" function="internal">
        <lane id=":J10_1_0" index="0" speed="13.89" length="20.77" shape="220.66,-62.29 218.45,-56.75 216.79,-52.98 215.55,-49.12 214.57,-43.29"/>
        <lane id=":J10_1_1" index="1" speed="13.89" length="20.77" shape="217.65,-63.37 215.37,-57.63 213.67,-53.72 212.39,-49.71 211.39,-43.67"/>
        <lane id=":J10_1_2" index="2" speed="13.89" length="20.77" shape="214.64,-64.45 212.29,-58.51 210.55,-54.46 209.24,-50.30 208.21,-44.05"/>
    </edge>
    <edge id=":J10_4" function="internal">
        <lane id=":J10_4_0" index="0" allow="motorcycle" speed="5.76" length="9.17" shape="195.95,-57.43 198.65,-57.52 200.28,-58.46 200.83,-60.26 200.29,-62.91"/>
    </edge>
    <edge id=":J10_5" function="internal">
        <lane id=":J10_5_0" index="0" speed="13.89" length="29.31" shape="195.95,-57.43 204.49,-56.61 210.36,-56.29 216.25,-56.30 224.83,-56.43"/>
        <lane id=":J10_5_1" index="1" speed="13.89" length="29.31" shape="195.61,-54.25 204.27,-53.42 210.21,-53.10 216.17,-53.10 224.87,-53.23"/>
        <lane id=":J10_5_2" index="2" speed="13.89" length="29.31" shape="195.28,-51.07 204.04,-50.22 210.06,-49.90 216.10,-49.90 224.91,-50.03"/>
    </edge>
    <edge id=":J10_8" function="internal">
        <lane id=":J10_8_0" index="0" speed="9.14" length="19.04" shape="195.28,-51.07 202.58,-49.94 207.70,-48.33 210.64,-46.24 211.39,-43.67"/>
        <lane id=":J10_8_1" index="1" speed="8.44" length="16.06" shape="195.28,-51.07 201.19,-50.09 205.31,-48.59 207.66,-46.58 208.21,-44.05"/>
    </edge>
    <edge id=":J11_0" function="internal">
        <lane id=":J11_0_0" index="0" allow="motorcycle" speed="3.91" length="3.19" shape="195.48,-76.75 195.30,-77.65 195.49,-78.31 196.03,-78.72 196.93,-78.88"/>
    </edge>
    <edge id=":J12_0" function="internal">
        <lane id=":J12_0_0" index="0" speed="13.89" length="12.23" shape="226.75,-84.14 226.26,-80.34 225.86,-77.75 225.23,-75.21 224.01,-71.59"/>
        <lane id=":J12_0_1" index="1" speed="13.89" length="12.23" shape="223.58,-84.58 223.11,-80.98 222.75,-78.51 222.15,-76.10 220.99,-72.67"/>
        <lane id=":J12_0_2" index="2" speed="13.89" length="12.23" shape="220.41,-85.02 219.97,-81.61 219.63,-79.28 219.07,-77.00 217.98,-73.75"/>
    </edge>
    <edge id=":J12_3" function="internal">
        <lane id=":J12_3_0" index="0" speed="6.73" length="12.59" shape="213.77,-79.51 217.90,-79.22 220.48,-77.98 221.51,-75.80 220.99,-72.67"/>
        <lane id=":J12_3_1" index="1" speed="5.84" length="9.13" shape="213.77,-79.51 216.42,-79.24 218.01,-78.19 218.53,-76.36 217.98,-73.75"/>
    </edge>
    <edge id=":J17_0" function="internal">
        <lane id=":J17_0_0" index="0" speed="5.49" length="11.28" shape="345.55,-292.79 342.31,-291.05 341.52,-289.71 343.19,-288.79 347.31,-288.28"/>
    </edge>
    <edge id=":J17_1" function="internal">
        <lane id=":J17_1_0" index="0" speed="13.89" length="22.82" shape="345.55,-292.79 340.02,-289.83 336.47,-286.52 333.86,-282.26 331.16,-276.43"/>
        <lane id=":J17_1_1" index="1" speed="13.89" length="22.82" shape="342.51,-294.95 336.99,-291.86 333.49,-288.27 330.93,-283.72 328.25,-277.75"/>
    </edge>
    <edge id=":J17_3" function="internal">
        <lane id=":J17_3_0" index="0" speed="11.87" length="20.98" shape="318.76,-289.62 324.16,-290.12 328.81,-291.96 332.72,-295.14 335.88,-299.66"/>
    </edge>
    <edge id=":J17_4" function="internal">
        <lane id=":J17_4_0" index="0" speed="13.89" length="28.53" shape="318.76,-289.62 347.31,-288.28"/>
        <lane id=":J17_4_1" index="1" speed="13.89" length="28.53" shape="318.67,-286.42 347.12,-285.08"/>
    </edge>
    <edge id=":J17_6" function="internal">
        <lane id=":J17_6_0" index="0" speed="7.52" length="16.19" shape="318.67,-286.42 324.27,-285.73 327.73,-284.05 329.06,-281.39 328.25,-277.75"/>
    </edge>
    <edge id=":J17_7" function="internal">
        <lane id=":J17_7_0" index="0" speed="13.89" length="17.80" shape="322.42,-280.40 324.88,-285.09 326.80,-288.27 328.18,-291.59 329.02,-296.72"/>
    </edge>
    <edge id=":J17_8" function="internal">
        <lane id=":J17_8_0" index="0" speed="11.96" length="2.66" shape="325.33,-279.07 327.05,-281.10"/>
    </edge>
    <edge id=":J17_9" function="internal">
        <lane id=":J17_9_0" index="0" speed="11.96" length="21.04" shape="327.05,-281.10 327.90,-282.11 332.39,-284.12 338.79,-285.11 347.12,-285.08"/>
    </edge>
    <edge id=":J19_0" function="internal">
        <lane id=":J19_0_0" index="0" speed="3.92" length="2.33" shape="339.30,-306.04 339.67,-306.54 340.12,-306.84 340.65,-306.92 341.26,-306.78"/>
    </edge>
    <edge id=":J2_0" function="internal">
        <lane id=":J2_0_0" index="0" speed="13.89" length="20.04" shape="155.96,36.58 154.37,56.41"/>
        <lane id=":J2_0_1" index="1" speed="13.89" length="20.04" shape="152.77,36.30 151.17,56.27"/>
        <lane id=":J2_0_2" index="2" speed="13.89" length="20.04" shape="149.58,36.02 147.98,56.14"/>
    </edge>
    <edge id=":J2_3" function="internal">
        <lane id=":J2_3_0" index="0" speed="13.89" length="19.23" shape="143.25,43.64 148.64,43.97 152.34,43.57 156.03,42.72 161.40,41.68"/>
        <lane id=":J2_3_1" index="1" speed="13.89" length="19.23" shape="142.88,46.82 148.53,47.17 152.40,46.78 156.27,45.92 161.88,44.84"/>
        <lane id=":J2_3_2" index="2" speed="13.89" length="19.23" shape="142.52,50.00 148.42,50.38 152.47,50.00 156.51,49.12 162.37,48.00"/>
    </edge>
    <edge id=":J2_6" function="internal">
        <lane id=":J2_6_0" index="0" speed="8.31" length="14.56" shape="142.52,50.00 147.79,50.92 151.52,52.29 153.71,54.12 154.37,56.41"/>
        <lane id=":J2_6_1" index="1" speed="7.54" length="11.81" shape="142.52,50.00 146.39,50.77 149.12,52.07 150.72,53.91 151.17,56.27"/>
        <lane id=":J2_6_2" index="2" speed="6.73" length="9.22" shape="142.52,50.00 145.00,50.63 146.73,51.86 147.72,53.69 147.98,56.14"/>
    </edge>
    <edge id=":J20_0" function="internal">
        <lane id=":J20_0_0" index="0" speed="9.09" length="17.38" shape="354.30,-310.20 355.57,-304.80 355.37,-300.46 353.71,-297.19 350.59,-294.98"/>
        <lane id=":J20_0_1" index="1" speed="8.44" length="14.84" shape="354.30,-310.20 355.10,-306.12 354.54,-302.72 352.61,-299.98 349.31,-297.92"/>
    </edge>
    <edge id=":J20_2" function="internal">
        <lane id=":J20_2_0" index="0" speed="6.87" length="16.46" shape="346.72,-304.76 352.30,-302.18 354.81,-299.69 354.24,-297.29 350.59,-294.98"/>
        <lane id=":J20_2_1" index="1" speed="5.86" length="11.51" shape="346.72,-304.76 350.60,-302.96 352.32,-301.22 351.89,-299.54 349.31,-297.92"/>
    </edge>
    <edge id=":J22_0" function="internal">
        <lane id=":J22_0_0" index="0" speed="8.33" length="13.36" shape="343.34,-189.67 340.26,-189.24 337.78,-187.68 335.90,-184.99 334.62,-181.16"/>
    </edge>
    <edge id=":J22_1" function="internal">
        <lane id=":J22_1_0" index="0" speed="13.89" length="29.07" shape="343.34,-189.67 314.34,-190.57"/>
        <lane id=":J22_1_1" index="1" speed="13.89" length="29.07" shape="343.47,-192.87 314.42,-193.77"/>
        <lane id=":J22_1_2" index="2" speed="13.89" length="29.07" shape="343.60,-196.07 314.49,-196.97"/>
    </edge>
    <edge id=":J22_4" function="internal">
        <lane id=":J22_4_0" index="0" speed="10.46" length="4.68" shape="343.60,-196.07 339.00,-196.92"/>
    </edge>
    <edge id=":J22_22" function="internal">
        <lane id=":J22_22_0" index="0" speed="10.46" length="19.87" shape="339.00,-196.92 337.05,-197.28 332.40,-200.33 329.67,-205.19 328.85,-211.89"/>
    </edge>
    <edge id=":J22_5" function="internal">
        <lane id=":J22_5_0" index="0" speed="6.61" length="9.24" shape="338.57,-211.72 338.85,-209.15 339.85,-207.29 341.56,-206.12 343.99,-205.66"/>
    </edge>
    <edge id=":J22_6" function="internal">
        <lane id=":J22_6_0" index="0" speed="13.89" length="30.57" shape="338.57,-211.72 338.24,-202.68 337.67,-196.31 336.55,-190.01 334.62,-181.16"/>
        <lane id=":J22_6_1" index="1" speed="13.89" length="30.57" shape="335.37,-211.78 335.06,-202.83 334.50,-196.68 333.42,-190.60 331.50,-181.86"/>
    </edge>
    <edge id=":J22_8" function="internal">
        <lane id=":J22_8_0" index="0" speed="11.70" length="15.56" shape="335.37,-211.78 333.88,-203.72 329.89,-198.04 329.51,-197.84"/>
    </edge>
    <edge id=":J22_9" function="internal">
        <lane id=":J22_9_0" index="0" speed="13.89" length="29.61" shape="332.17,-211.83 331.86,-203.06 331.33,-197.06 330.26,-191.13 328.37,-182.55"/>
    </edge>
    <edge id=":J22_10" function="internal">
        <lane id=":J22_10_0" index="0" speed="11.71" length="11.31" shape="332.17,-211.83 330.84,-202.38 330.04,-200.81"/>
    </edge>
    <edge id=":J22_23" function="internal">
        <lane id=":J22_23_0" index="0" speed="11.70" length="15.90" shape="329.51,-197.84 323.40,-194.72 314.42,-193.77"/>
    </edge>
    <edge id=":J22_24" function="internal">
        <lane id=":J22_24_0" index="0" speed="11.71" length="20.18" shape="330.04,-200.81 327.43,-195.69 321.93,-191.75 314.34,-190.57"/>
    </edge>
    <edge id=":J22_11" function="internal">
        <lane id=":J22_11_0" index="0" speed="7.02" length="10.72" shape="314.71,-206.57 318.06,-206.84 320.47,-207.84 321.93,-209.56 322.45,-212.00"/>
    </edge>
    <edge id=":J22_12" function="internal">
        <lane id=":J22_12_0" index="0" speed="8.61" length="16.54" shape="314.71,-206.57 320.90,-206.78 325.33,-207.74 328.03,-209.44 328.97,-211.89"/>
    </edge>
    <edge id=":J22_13" function="internal">
        <lane id=":J22_13_0" index="0" speed="13.89" length="29.24" shape="314.71,-206.57 343.99,-205.66"/>
        <lane id=":J22_13_1" index="1" speed="13.89" length="29.24" shape="314.64,-203.37 343.86,-202.46"/>
        <lane id=":J22_13_2" index="2" speed="13.89" length="29.24" shape="314.56,-200.17 343.73,-199.26"/>
    </edge>
    <edge id=":J22_16" function="internal">
        <lane id=":J22_16_0" index="0" speed="10.13" length="5.26" shape="314.56,-200.17 319.75,-199.30"/>
    </edge>
    <edge id=":J22_25" function="internal">
        <lane id=":J22_25_0" index="0" speed="10.13" length="21.60" shape="319.75,-199.30 322.04,-198.92 326.83,-195.56 328.94,-190.11 328.37,-182.55"/>
    </edge>
    <edge id=":J22_17" function="internal">
        <lane id=":J22_17_0" index="0" speed="6.13" length="9.06" shape="319.00,-184.63 319.19,-187.18 318.48,-189.02 316.86,-190.15 314.34,-190.57"/>
    </edge>
    <edge id=":J22_18" function="internal">
        <lane id=":J22_18_0" index="0" speed="13.89" length="28.30" shape="319.00,-184.63 320.77,-192.65 321.76,-198.19 322.23,-203.80 322.45,-212.00"/>
        <lane id=":J22_18_1" index="1" speed="13.89" length="28.30" shape="322.12,-183.94 323.93,-192.14 324.94,-197.82 325.42,-203.55 325.65,-211.95"/>
        <lane id=":J22_18_2" index="2" speed="13.89" length="28.30" shape="322.12,-183.94 324.45,-192.20 326.56,-197.79 328.13,-203.43 328.85,-211.89"/>
    </edge>
    <edge id=":J22_21" function="internal">
        <lane id=":J22_21_0" index="0" speed="11.63" length="5.86" shape="325.25,-183.24 327.19,-188.77"/>
    </edge>
    <edge id=":J22_26" function="internal">
        <lane id=":J22_26_0" index="0" speed="11.63" length="21.05" shape="327.19,-188.77 327.79,-190.48 331.71,-195.56 337.03,-198.49 343.73,-199.26"/>
    </edge>
    <edge id=":J23_0" function="internal">
        <lane id=":J23_0_0" index="0" speed="13.89" length="3.00" shape="338.82,-221.71 338.76,-218.67"/>
        <lane id=":J23_0_1" index="1" speed="13.89" length="3.00" shape="335.62,-221.75 335.56,-218.75"/>
        <lane id=":J23_0_2" index="2" speed="13.89" length="3.00" shape="332.42,-221.79 332.36,-218.84"/>
    </edge>
    <edge id=":J23_3" function="internal">
        <lane id=":J23_3_0" index="0" speed="3.65" length="1.44" shape="329.16,-218.92 329.99,-220.10"/>
    </edge>
    <edge id=":J23_4" function="internal">
        <lane id=":J23_4_0" index="0" speed="3.65" length="3.23" shape="329.99,-220.10 330.80,-220.48 331.59,-220.06 332.36,-218.84"/>
    </edge>
    <edge id=":J3_0" function="internal">
        <lane id=":J3_0_0" index="0" speed="3.94" length="2.07" shape="134.22,24.34 134.61,23.96 135.05,23.75 135.54,23.71 136.07,23.84"/>
    </edge>
    <edge id=":J30_0" function="internal">
        <lane id=":J30_0_0" index="0" speed="13.89" length="12.42" shape="475.16,-317.43 473.01,-314.80 471.25,-312.49 469.92,-309.99 469.11,-306.80"/>
    </edge>
    <edge id=":J30_1" function="internal">
        <lane id=":J30_1_0" index="0" speed="9.10" length="12.89" shape="458.58,-312.95 461.04,-313.39 463.37,-314.91 465.56,-317.50 467.62,-321.17"/>
        <lane id=":J30_1_1" index="1" speed="9.66" length="14.60" shape="458.58,-312.95 462.52,-313.25 465.82,-314.49 468.48,-316.65 470.49,-319.75"/>
    </edge>
    <edge id=":J31_0" function="internal">
        <lane id=":J31_0_0" index="0" speed="8.45" length="10.55" shape="482.01,-339.29 483.66,-335.68 484.62,-332.82 484.88,-330.71 484.46,-329.34"/>
    </edge>
    <edge id=":J31_1" function="internal">
        <lane id=":J31_1_0" index="0" speed="4.17" length="1.03" shape="481.88,-332.25 482.90,-332.39"/>
    </edge>
    <edge id=":J31_2" function="internal">
        <lane id=":J31_2_0" index="0" speed="4.17" length="4.64" shape="482.90,-332.39 483.61,-332.49 484.62,-332.08 484.90,-331.03 484.46,-329.34"/>
    </edge>
    <edge id=":J36_0" function="internal">
        <lane id=":J36_0_0" index="0" speed="6.43" length="9.03" shape="562.27,-333.34 562.64,-330.88 563.71,-329.16 565.48,-328.17 567.96,-327.92"/>
    </edge>
    <edge id=":J36_1" function="internal">
        <lane id=":J36_1_0" index="0" speed="13.89" length="14.60" shape="562.27,-333.34 562.59,-318.85"/>
        <lane id=":J36_1_1" index="1" speed="13.89" length="14.60" shape="559.07,-333.33 559.40,-318.63"/>
    </edge>
    <edge id=":J36_3" function="internal">
        <lane id=":J36_3_0" index="0" speed="6.63" length="9.28" shape="550.34,-327.30 552.77,-327.73 554.50,-328.87 555.54,-330.73 555.87,-333.31"/>
    </edge>
    <edge id=":J36_4" function="internal">
        <lane id=":J36_4_0" index="0" speed="13.89" length="17.66" shape="550.34,-327.30 567.96,-327.92"/>
        <lane id=":J36_4_1" index="1" speed="13.89" length="17.66" shape="550.42,-324.10 568.09,-324.72"/>
    </edge>
    <edge id=":J37_0" function="internal">
        <lane id=":J37_0_0" index="0" speed="3.65" length="1.44" shape="555.85,-337.17 556.65,-338.37"/>
    </edge>
    <edge id=":J37_3" function="internal">
        <lane id=":J37_3_0" index="0" speed="3.65" length="3.23" shape="556.65,-338.37 557.45,-338.77 558.25,-338.38 559.05,-337.18"/>
    </edge>
    <edge id=":J37_1" function="internal">
        <lane id=":J37_1_0" index="0" speed="13.89" length="2.80" shape="562.13,-340.11 562.25,-337.20"/>
        <lane id=":J37_1_1" index="1" speed="13.89" length="2.80" shape="558.94,-339.86 559.05,-337.18"/>
    </edge>
    <edge id=":J4_0" function="internal">
        <lane id=":J4_0_0" index="0" speed="13.89" length="9.63" shape="156.68,24.36 156.17,34.16"/>
        <lane id=":J4_0_1" index="1" speed="13.89" length="9.63" shape="153.48,24.26 152.99,33.88"/>
        <lane id=":J4_0_2" index="2" speed="13.89" length="9.63" shape="150.28,24.15 149.80,33.59"/>
    </edge>
    <edge id=":J4_3" function="internal">
        <lane id=":J4_3_0" index="0" speed="6.99" length="8.25" shape="145.22,27.47 147.36,28.59 148.84,29.98 149.65,31.65 149.80,33.59"/>
    </edge>
    <edge id=":J44_0" function="internal">
        <lane id=":J44_0_0" index="0" speed="9.14" length="2.91" shape="650.49,-387.74 649.06,-387.76 648.08,-387.92 647.17,-388.33 645.97,-389.09"/>
        <lane id=":J44_0_1" index="1" speed="7.20" length="2.91" shape="650.46,-390.94 649.60,-390.95 649.01,-391.05 648.47,-391.29 647.74,-391.75"/>
        <lane id=":J44_0_2" index="2" speed="13.89" length="2.91" shape="650.43,-394.14 650.14,-394.15 649.95,-394.18 649.76,-394.26 649.52,-394.41"/>
    </edge>
    <edge id=":J45_0" function="internal">
        <lane id=":J45_0_0" index="0" speed="9.48" length="27.43" shape="625.58,-402.73 619.83,-408.09 617.71,-413.82 619.42,-419.41 625.16,-424.41"/>
        <lane id=":J45_0_1" index="1" speed="8.44" length="21.44" shape="627.36,-405.39 622.34,-409.74 620.57,-413.90 622.04,-417.86 626.76,-421.64"/>
    </edge>
    <edge id=":J45_2" function="internal">
        <lane id=":J45_2_0" index="0" speed="6.40" length="15.86" shape="629.14,-408.05 624.67,-411.54 623.44,-413.83 625.47,-414.93 630.75,-414.84"/>
    </edge>
    <edge id=":J45_3" function="internal">
        <lane id=":J45_3_0" index="0" speed="7.29" length="20.01" shape="630.44,-411.66 623.52,-412.95 620.60,-415.04 621.68,-417.94 626.76,-421.64"/>
        <lane id=":J45_3_1" index="1" speed="6.25" length="14.21" shape="630.44,-411.66 625.66,-412.57 623.73,-414.08 624.63,-416.18 628.37,-418.87"/>
    </edge>
    <edge id=":J47_0" function="internal">
        <lane id=":J47_0_0" index="0" speed="9.91" length="2.40" shape="646.22,-436.62 647.25,-437.20 648.01,-437.51 648.82,-437.64 650.00,-437.70"/>
        <lane id=":J47_0_1" index="1" speed="7.79" length="2.40" shape="647.83,-433.85 648.44,-434.20 648.90,-434.38 649.39,-434.47 650.10,-434.50"/>
        <lane id=":J47_0_2" index="2" speed="13.89" length="2.40" shape="649.43,-431.08 649.64,-431.20 649.79,-431.26 649.95,-431.29 650.19,-431.30"/>
    </edge>
    <edge id=":J49_0" function="internal">
        <lane id=":J49_0_0" index="0" speed="3.65" length="4.67" shape="637.70,-414.15 638.81,-413.24 639.13,-412.40 638.66,-411.65 637.38,-410.97"/>
    </edge>
    <edge id=":J50_0" function="internal">
        <lane id=":J50_0_0" index="0" speed="13.89" length="12.97" shape="855.33,-468.05 851.37,-467.79 848.65,-467.62 845.93,-467.62 841.97,-467.83"/>
        <lane id=":J50_0_1" index="1" speed="13.89" length="12.97" shape="855.14,-471.25 851.30,-470.99 848.66,-470.83 846.03,-470.82 842.19,-471.02"/>
        <lane id=":J50_0_2" index="2" speed="13.89" length="12.97" shape="854.95,-474.44 851.23,-474.19 848.67,-474.03 846.12,-474.02 842.40,-474.21"/>
    </edge>
    <edge id=":J50_3" function="internal">
        <lane id=":J50_3_0" index="0" speed="6.57" length="15.38" shape="844.71,-479.46 848.19,-475.46 848.93,-472.72 846.93,-471.24 842.19,-471.02"/>
        <lane id=":J50_3_1" index="1" speed="5.46" length="10.07" shape="844.71,-479.46 846.85,-476.95 847.18,-475.24 845.70,-474.33 842.40,-474.21"/>
    </edge>
    <edge id=":J51_0" function="internal">
        <lane id=":J51_0_0" index="0" speed="6.43" length="9.03" shape="835.29,-468.28 832.81,-468.09 831.02,-467.15 829.90,-465.45 829.48,-463.00"/>
    </edge>
    <edge id=":J51_1" function="internal">
        <lane id=":J51_1_0" index="0" speed="13.89" length="17.97" shape="835.29,-468.28 817.59,-469.16"/>
        <lane id=":J51_1_1" index="1" speed="13.89" length="17.97" shape="835.51,-471.47 817.56,-472.36"/>
        <lane id=":J51_1_2" index="2" speed="13.89" length="17.97" shape="835.72,-474.66 817.53,-475.56"/>
    </edge>
    <edge id=":J51_4" function="internal">
        <lane id=":J51_4_0" index="0" speed="7.50" length="10.06" shape="835.72,-474.66 831.62,-476.68 831.87,-480.87 832.59,-481.94"/>
    </edge>
    <edge id=":J51_15" function="internal">
        <lane id=":J51_15_0" index="0" speed="7.50" length="11.42" shape="832.59,-481.94 835.23,-485.80 840.47,-490.04"/>
    </edge>
    <edge id=":J51_5" function="internal">
        <lane id=":J51_5_0" index="0" speed="5.58" length="9.36" shape="831.69,-499.01 831.82,-496.14 832.78,-494.61 834.58,-494.41 837.22,-495.55"/>
    </edge>
    <edge id=":J51_6" function="internal">
        <lane id=":J51_6_0" index="0" speed="13.89" length="36.24" shape="831.69,-499.01 829.48,-463.00"/>
        <lane id=":J51_6_1" index="1" speed="13.89" length="36.24" shape="828.50,-499.27 826.28,-463.09"/>
        <lane id=":J51_6_2" index="2" speed="13.89" length="36.24" shape="825.31,-499.53 823.08,-463.19"/>
    </edge>
    <edge id=":J51_9" function="internal">
        <lane id=":J51_9_0" index="0" speed="11.68" length="29.22" shape="825.31,-499.53 824.00,-487.66 822.27,-479.18 820.13,-474.08 817.56,-472.36"/>
        <lane id=":J51_9_1" index="1" speed="11.10" length="26.29" shape="825.31,-499.53 824.10,-489.06 822.39,-481.58 820.21,-477.08 817.53,-475.56"/>
    </edge>
    <edge id=":J51_11" function="internal">
        <lane id=":J51_11_0" index="0" speed="13.89" length="24.60" shape="817.43,-485.16 823.88,-486.03 827.91,-488.26 831.64,-491.54 837.22,-495.55"/>
        <lane id=":J51_11_1" index="1" speed="13.89" length="24.60" shape="817.46,-481.96 824.41,-482.84 828.78,-485.13 832.84,-488.55 838.85,-492.79"/>
        <lane id=":J51_11_2" index="2" speed="13.89" length="24.60" shape="817.50,-478.76 824.94,-479.66 829.65,-482.00 834.03,-485.55 840.47,-490.04"/>
    </edge>
    <edge id=":J51_14" function="internal">
        <lane id=":J51_14_0" index="0" speed="8.82" length="2.48" shape="817.50,-478.76 819.82,-477.91"/>
    </edge>
    <edge id=":J51_16" function="internal">
        <lane id=":J51_16_0" index="0" speed="8.82" length="15.54" shape="819.82,-477.91 820.11,-477.81 821.91,-474.89 822.90,-470.02 823.08,-463.19"/>
    </edge>
    <edge id=":J57_0" function="internal">
        <lane id=":J57_0_0" index="0" speed="9.59" length="2.57" shape="847.32,-501.52 848.42,-502.14 849.23,-502.47 850.10,-502.60 851.37,-502.63"/>
        <lane id=":J57_0_1" index="1" speed="7.55" length="2.57" shape="848.95,-498.76 849.61,-499.14 850.10,-499.34 850.62,-499.41 851.38,-499.43"/>
        <lane id=":J57_0_2" index="2" speed="13.89" length="2.57" shape="850.58,-496.01 850.80,-496.13 850.96,-496.20 851.13,-496.22 851.39,-496.23"/>
    </edge>
    <edge id=":J59_0" function="internal">
        <lane id=":J59_0_0" index="0" speed="13.89" length="0.84" shape="840.22,-484.04 840.30,-483.80 840.37,-483.65 840.48,-483.51 840.65,-483.34"/>
    </edge>
    <edge id=":J61_0" function="internal">
        <lane id=":J61_0_0" index="0" speed="13.89" length="0.28" shape="981.19,-571.49 980.97,-571.49"/>
        <lane id=":J61_0_1" index="1" speed="13.89" length="0.28" shape="981.16,-574.69 980.88,-574.69"/>
        <lane id=":J61_0_2" index="2" speed="13.89" length="0.28" shape="981.12,-577.89 980.78,-577.89"/>
    </edge>
    <edge id=":J62_0" function="internal">
        <lane id=":J62_0_0" index="0" speed="12.21" length="1.82" shape="954.83,-570.72 953.93,-570.70 953.32,-570.75 952.72,-570.90 951.87,-571.19"/>
        <lane id=":J62_0_1" index="1" speed="9.55" length="1.82" shape="954.73,-573.92 954.20,-573.91 953.83,-573.94 953.47,-574.03 952.96,-574.20"/>
        <lane id=":J62_0_2" index="2" speed="13.89" length="1.82" shape="954.64,-577.12 954.46,-577.11 954.34,-577.12 954.22,-577.15 954.05,-577.21"/>
    </edge>
    <edge id=":J63_0" function="internal">
        <lane id=":J63_0_0" index="0" speed="5.92" length="9.10" shape="938.20,-576.15 935.63,-576.69 933.77,-576.18 932.63,-574.63 932.21,-572.04"/>
    </edge>
    <edge id=":J63_1" function="internal">
        <lane id=":J63_1_0" index="0" speed="13.89" length="20.03" shape="938.20,-576.15 933.02,-578.35 929.48,-580.08 925.84,-581.19 920.35,-581.52"/>
        <lane id=":J63_1_1" index="1" speed="13.89" length="20.03" shape="939.29,-579.15 933.79,-581.47 930.01,-583.26 926.13,-584.39 920.30,-584.72"/>
        <lane id=":J63_1_2" index="2" speed="13.89" length="20.03" shape="940.38,-582.16 934.55,-584.59 930.55,-586.44 926.42,-587.59 920.25,-587.92"/>
    </edge>
    <edge id=":J63_4" function="internal">
        <lane id=":J63_4_0" index="0" speed="10.76" length="14.76" shape="940.38,-582.16 932.44,-587.37 930.94,-592.42"/>
    </edge>
    <edge id=":J63_17" function="internal">
        <lane id=":J63_17_0" index="0" speed="10.76" length="21.35" shape="930.94,-592.42 930.35,-594.38 933.23,-602.41 940.18,-610.64"/>
    </edge>
    <edge id=":J63_5" function="internal">
        <lane id=":J63_5_0" index="0" speed="10.00" length="19.21" shape="934.15,-589.75 932.03,-588.31 930.47,-584.89 929.46,-579.49 929.01,-572.10"/>
    </edge>
    <edge id=":J63_6" function="internal">
        <lane id=":J63_6_0" index="0" speed="13.89" length="14.89" shape="934.15,-589.75 930.94,-588.59 928.14,-586.94 924.88,-585.43 920.30,-584.72"/>
    </edge>
    <edge id=":J63_7" function="internal">
        <lane id=":J63_7_0" index="0" speed="8.25" length="26.77" shape="934.15,-589.75 929.59,-590.70 931.00,-595.37 936.03,-601.87 942.36,-608.29"/>
    </edge>
    <edge id=":J63_8" function="internal">
        <lane id=":J63_8_0" index="0" speed="5.51" length="9.68" shape="932.44,-605.06 938.00,-612.98"/>
    </edge>
    <edge id=":J63_9" function="internal">
        <lane id=":J63_9_0" index="0" speed="13.89" length="32.93" shape="932.44,-605.06 932.21,-572.04"/>
        <lane id=":J63_9_1" index="1" speed="13.89" length="32.93" shape="929.24,-605.03 929.01,-572.10"/>
        <lane id=":J63_9_2" index="2" speed="13.89" length="32.93" shape="926.04,-605.00 925.81,-572.17"/>
    </edge>
    <edge id=":J63_12" function="internal">
        <lane id=":J63_12_0" index="0" speed="9.29" length="19.39" shape="926.04,-605.00 925.73,-597.57 924.66,-592.24 922.84,-589.03 920.25,-587.92"/>
    </edge>
    <edge id=":J63_13" function="internal">
        <lane id=":J63_13_0" index="0" speed="13.89" length="27.14" shape="920.10,-597.52 926.67,-598.88 930.24,-602.30 933.21,-607.20 938.00,-612.98"/>
        <lane id=":J63_13_1" index="1" speed="13.89" length="27.14" shape="920.15,-594.32 927.40,-595.72 931.46,-599.26 934.87,-604.41 940.18,-610.64"/>
        <lane id=":J63_13_2" index="2" speed="13.89" length="27.14" shape="920.20,-591.12 928.13,-592.56 932.68,-596.21 936.53,-601.62 942.36,-608.29"/>
    </edge>
    <edge id=":J63_16" function="internal">
        <lane id=":J63_16_0" index="0" speed="9.54" length="2.12" shape="920.20,-591.12 922.13,-590.27"/>
    </edge>
    <edge id=":J63_18" function="internal">
        <lane id=":J63_18_0" index="0" speed="9.54" length="19.05" shape="922.13,-590.27 922.80,-589.97 924.60,-586.43 925.61,-580.50 925.81,-572.17"/>
    </edge>
    <edge id=":J66_0" function="internal">
        <lane id=":J66_0_0" index="0" speed="8.65" length="3.49" shape="948.69,-622.91 949.98,-624.03 951.01,-624.66 952.18,-624.94 953.88,-625.04"/>
        <lane id=":J66_0_1" index="1" speed="6.83" length="3.49" shape="950.87,-620.56 951.64,-621.24 952.26,-621.61 952.96,-621.78 953.98,-621.84"/>
        <lane id=":J66_0_2" index="2" speed="4.30" length="3.49" shape="953.05,-618.22 953.30,-618.44 953.51,-618.57 953.74,-618.62 954.09,-618.64"/>
    </edge>
    <edge id=":J70_0" function="internal">
        <lane id=":J70_0_0" index="0" speed="3.90" length="2.64" shape="936.74,-591.91 936.80,-591.18 936.60,-590.62 936.16,-590.23 935.47,-589.99"/>
    </edge>
    <edge id=":J72_0" function="internal">