<?xml version="1.0" encoding="UTF-8"?>

<!-- generated on 2023-10-31 01:38:09 by Eclipse SUMO sumo Version 1.18.0
-->

<configuration xmlns:xsi="http://www.w3.org/2001/XMLSchema-instance" xsi:noNamespaceSchemaLocation="http://sumo.dlr.de/xsd/sumoConfiguration.xsd">

    <input>
        <net-file value="tesis2.net.xml"/>
        <route-files value="tesis2.rou.xml"/>
        <additional-files value="tesis2.add.xml"/>
    </input>

</configuration>
