<?xml version="1.0" encoding="UTF-8"?>

<!-- generated on 2023-10-31 01:36:19 by Eclipse SUMO netedit Version 1.18.0
-->

<routes xmlns:xsi="http://www.w3.org/2001/XMLSchema-instance" xsi:noNamespaceSchemaLocation="http://sumo.dlr.de/xsd/routes_file.xsd">
    <!-- VTypes -->
    <vType id="DEFAULT_VEHTYPE" length="1.50" minGap="1.50" vClass="moped"/>
    <vType id="t_0"/>
    <vType id="t_1" length="1.50" minGap="1.50" vClass="moped"/>
    <!-- Vehicles, persons and containers (sorted by depart) -->
    <flow id="f_0" begin="0.00" from="E16" to="E28" via="E18 E19 E27" end="3600.00" vehsPerHour="1800.00"/>
    <flow id="f_1" begin="0.00" from="E26" to="E28" end="3600.00" vehsPerHour="1800.00"/>
    <flow id="f_2" begin="0.00" from="E30" to="E34" via="E31 -E31" end="3600.00" vehsPerHour="1800.00"/>
    <flow id="f_3" begin="0.00" from="E32" to="E34" end="3600.00" vehsPerHour="1800.00"/>
</routes>
