<?xml version="1.0" encoding="UTF-8"?>

<!-- generated on 2023-10-31 22:03:15 by Eclipse SUMO sumo Version 1.18.0
-->

<configuration xmlns:xsi="http://www.w3.org/2001/XMLSchema-instance" xsi:noNamespaceSchemaLocation="http://sumo.dlr.de/xsd/sumoConfiguration.xsd">

    <input>
        <net-file value="tesis3.net.xml"/>
        <route-files value="tesis3.rou.xml"/>
    </input>

    <processing>
        <lateral-resolution value="1"/>
    </processing>

</configuration>
