<?xml version="1.0" encoding="UTF-8"?>

<!-- generated on 2023-10-31 21:59:52 by Eclipse SUMO netedit Version 1.18.0
-->

<routes xmlns:xsi="http://www.w3.org/2001/XMLSchema-instance" xsi:noNamespaceSchemaLocation="http://sumo.dlr.de/xsd/routes_file.xsd">
    <!-- VTypes -->
    <vType id="DEFAULT_VEHTYPE" minGap="0.50" vClass="moped"/>
    <vType id="t_0" vClass="moped"/>
    <!-- Vehicles, persons and containers (sorted by depart) -->
    <trip id="t_0" depart="0.00" from="E4" to="E6"/>
    <flow id="f_0" type="DEFAULT_TAXITYPE" begin="0.00" from="E4" to="E6" end="3600.00" vehsPerHour="1800.00"/>
    <flow id="f_1" type="t_0" begin="0.00" from="E4" to="E6" end="3600.00" vehsPerHour="1800.00"/>
    <flow id="f_2" type="t_0" begin="0.00" from="-E6" to="E7" via="-E5.48" end="3600.00" vehsPerHour="1800.00"/>
    <flow id="f_3" type="t_0" begin="0.00" color="blue" from="-E5" to="E7" end="3600.00" vehsPerHour="1800.00"/>
    <flow id="f_4" type="DEFAULT_TAXITYPE" begin="0.00" color="blue" from="-E5" to="E7" end="3600.00" vehsPerHour="1800.00"/>
    <flow id="f_5" type="DEFAULT_TAXITYPE" begin="0.00" color="blue" from="-E6" to="E50" end="3600.00" vehsPerHour="1800.00"/>
</routes>
