<?xml version="1.0" encoding="UTF-8"?>

<!-- generated on 2023-11-02 20:57:53 by Eclipse SUMO netedit Version 1.18.0
<configuration xmlns:xsi="http://www.w3.org/2001/XMLSchema-instance" xsi:noNamespaceSchemaLocation="http://sumo.dlr.de/xsd/neteditConfiguration.xsd">

    <input>
        <sumocfg-file value="C:\Program Files (x86)\Eclipse\Sumo\thesis_test\tests5.sumocfg"/>
        <route-files value="C:\Program Files (x86)\Eclipse\Sumo\thesis_test\tests5.rou.xml"/>
        <sumo-net-file value="C:\Program Files (x86)\Eclipse\Sumo\thesis_test\tests5.net.xml"/>
    </input>

    <output>
        <output-file value="C:\Program Files (x86)\Eclipse\Sumo\thesis_test\tests5.net.xml"/>
    </output>

    <processing>
        <offset.disable-normalization value="true"/>
    </processing>

    <junctions>
        <no-turnarounds value="true"/>
    </junctions>

    <netedit>
        <new-network value="false"/>
    </netedit>

</configuration>
-->

<net version="1.16" junctionCornerDetail="5" limitTurnSpeed="5.50" xmlns:xsi="http://www.w3.org/2001/XMLSchema-instance" xsi:noNamespaceSchemaLocation="http://sumo.dlr.de/xsd/net_file.xsd">

    <location netOffset="0.00,0.00" convBoundary="-13.89,-47.83,73.52,70.38" origBoundary="10000000000.00,10000000000.00,-10000000000.00,-10000000000.00" projParameter="!"/>

    <edge id=":J10_0" function="internal">
        <lane id=":J10_0_0" index="0" speed="6.00" length="10.61" shape="21.92,-9.67 18.47,-7.94 15.99,-7.57 14.49,-8.58 13.95,-10.95"/>
        <lane id=":J10_0_1" index="1" speed="4.92" length="6.65" shape="21.92,-9.67 19.86,-8.67 18.38,-8.55 17.48,-9.32 17.15,-10.98"/>
    </edge>
    <edge id=":J10_2" function="internal">
        <lane id=":J10_2_0" index="0" speed="13.89" length="9.05" shape="13.86,-1.90 13.95,-10.95"/>
    </edge>
    <edge id=":J11_0" function="internal">
        <lane id=":J11_0_0" index="0" speed="13.89" length="13.28" shape="34.17,-14.67 30.13,-14.16 27.28,-13.10 24.86,-11.61 22.09,-9.78"/>
    </edge>
    <edge id=":J11_1" function="internal">
        <lane id=":J11_1_0" index="0" speed="13.89" length="9.76" shape="34.17,-14.67 24.44,-14.20"/>
        <lane id=":J11_1_1" index="1" speed="13.89" length="9.76" shape="34.04,-17.87 24.28,-17.40"/>
    </edge>
    <edge id=":J13_0" function="internal">
        <lane id=":J13_0_0" index="0" speed="5.85" length="6.99" shape="13.95,-11.15 13.58,-12.39 12.52,-13.27 10.75,-13.81 8.29,-14.01"/>
    </edge>
    <edge id=":J13_1" function="internal">
        <lane id=":J13_1_0" index="0" speed="13.89" length="12.04" shape="13.95,-11.15 13.96,-23.25"/>
        <lane id=":J13_1_1" index="1" speed="13.89" length="12.04" shape="17.15,-11.18 17.16,-23.16"/>
    </edge>
    <edge id=":J13_3" function="internal">
        <lane id=":J13_3_0" index="0" speed="5.49" length="5.91" shape="24.24,-14.19 23.69,-13.42 23.46,-11.68 23.42,-9.77 23.44,-8.46"/>
    </edge>
    <edge id=":J13_4" function="internal">
        <lane id=":J13_4_0" index="0" speed="13.89" length="15.86" shape="24.24,-14.19 8.29,-14.01"/>
        <lane id=":J13_4_1" index="1" speed="13.89" length="15.86" shape="24.08,-17.39 8.32,-17.21"/>
    </edge>
    <edge id=":J13_6" function="internal">
        <lane id=":J13_6_0" index="0" speed="6.78" length="10.45" shape="24.08,-17.39 20.99,-17.62 18.81,-18.66 17.53,-20.51 17.16,-23.16"/>
    </edge>
    <edge id=":J13_7" function="internal">
        <lane id=":J13_7_0" index="0" speed="13.89" length="14.57" shape="23.56,-22.99 23.44,-8.46"/>
        <lane id=":J13_7_1" index="1" speed="13.89" length="14.57" shape="20.36,-23.08 20.24,-8.47"/>
    </edge>
    <edge id=":J13_9" function="internal">
        <lane id=":J13_9_0" index="0" speed="8.21" length="2.46" shape="20.36,-23.08 19.62,-20.72"/>
    </edge>
    <edge id=":J13_10" function="internal">
        <lane id=":J13_10_0" index="0" speed="8.21" length="12.31" shape="19.62,-20.72 19.55,-20.48 17.27,-18.63 13.52,-17.54 8.32,-17.21"/>
    </edge>
    <edge id=":J9_0" function="internal">
        <lane id=":J9_0_0" index="0" speed="13.89" length="0.46" shape="13.84,-0.39 13.84,-0.89"/>
        <lane id=":J9_0_1" index="1" speed="13.89" length="0.46" shape="17.04,-0.41 17.04,-0.84"/>
    </edge>
    <edge id=":J9_2" function="internal">
        <lane id=":J9_2_0" index="0" speed="13.89" length="0.32" shape="23.44,-0.74 23.44,-0.47"/>
        <lane id=":J9_2_1" index="1" speed="13.89" length="0.32" shape="20.24,-0.79 20.24,-0.44"/>
    </edge>

    <edge id="-E13" from="J14" to="J13" priority="-1">
        <lane id="-E13_0" index="0" speed="13.89" length="24.72" shape="24.23,-47.70 23.56,-22.99"/>
        <lane id="-E13_1" index="1" speed="13.89" length="24.72" shape="21.04,-47.79 20.36,-23.08"/>
    </edge>
    <edge id="-E7" from="J9" to="J8" priority="-1">
        <lane id="-E7_0" index="0" speed="13.89" length="70.81" shape="23.44,-0.47 24.01,70.34"/>
        <lane id="-E7_1" index="1" speed="13.89" length="70.81" shape="20.24,-0.44 20.81,70.36"/>
    </edge>
    <edge id="E10" from="J12" to="J11" priority="-1">
        <lane id="E10_0" index="0" speed="13.89" length="39.58" shape="73.72,-16.28 34.17,-14.67"/>
        <lane id="E10_1" index="1" speed="13.89" length="39.58" shape="73.59,-19.48 34.04,-17.87"/>
    </edge>
    <edge id="E11" from="J10" to="J13" priority="-1">
        <lane id="E11_0" index="0" speed="13.89" length="0.20" shape="13.95,-10.95 13.95,-11.15"/>
        <lane id="E11_1" index="1" speed="13.89" length="0.20" shape="17.15,-10.98 17.15,-11.18"/>
    </edge>
    <edge id="E12" from="J11" to="J13" priority="-1">
        <lane id="E12_0" index="0" speed="13.89" length="0.20" shape="24.44,-14.20 24.24,-14.19"/>
        <lane id="E12_1" index="1" speed="13.89" length="0.20" shape="24.28,-17.40 24.08,-17.39"/>
    </edge>
    <edge id="E13" from="J13" to="J14" priority="-1">
        <lane id="E13_0" index="0" speed="13.89" length="24.72" shape="13.96,-23.25 14.64,-47.96"/>
        <lane id="E13_1" index="1" speed="13.89" length="24.72" shape="17.16,-23.16 17.84,-47.87"/>
    </edge>
    <edge id="E14" from="J13" to="J15" priority="-1">
        <lane id="E14_0" index="0" speed="13.89" length="22.21" shape="8.29,-14.01 -13.92,-14.17"/>
        <lane id="E14_1" index="1" speed="13.89" length="22.21" shape="8.32,-17.21 -13.90,-17.37"/>
    </edge>
    <edge id="E15" from="J13" to="J9" priority="-1">
        <lane id="E15_0" index="0" speed="13.89" length="7.70" shape="23.44,-8.46 23.44,-0.74"/>
        <lane id="E15_1" index="1" speed="13.89" length="7.70" shape="20.24,-8.47 20.24,-0.79"/>
    </edge>
    <edge id="E7" from="J8" to="J9" priority="-1">
        <lane id="E7_0" index="0" speed="13.89" length="70.81" shape="14.41,70.41 13.84,-0.39"/>
        <lane id="E7_1" index="1" speed="13.89" length="70.81" shape="17.61,70.39 17.04,-0.41"/>
    </edge>
    <edge id="E8" from="J9" to="J10" priority="-1">
        <lane id="E8_0" index="0" speed="13.89" length="1.01" shape="13.84,-0.89 13.86,-1.90"/>
        <lane id="E8_1" index="1" speed="13.89" length="1.01" shape="17.04,-0.84 17.06,-1.85"/>
    </edge>
    <edge id="E9" from="J11" to="J10" priority="-1">
        <lane id="E9_0" index="0" speed="13.89" length="0.20" shape="22.09,-9.78 21.92,-9.67"/>
    </edge>

    <tlLogic id="J11" type="static" programID="0" offset="0">
        <phase duration="42" state="GGGrrrGGGGrrrGGGG"/>
        <phase duration="3"  state="yyyrrryyyyrrryyyy"/>
        <phase duration="42" state="GrrGGGrrrrGGgGGGG"/>
        <phase duration="3"  state="yrryyyrrrryyyyyyy"/>
    </tlLogic>

    <junction id="J10" type="priority" x="18.77" y="-9.62" incLanes="E9_0 E8_0 E8_1" intLanes=":J10_0_0 :J10_0_1 :J10_2_0" shape="23.86,-8.99 22.18,-11.71 20.28,-11.00 19.61,-11.17 19.13,-11.67 18.83,-12.52 18.71,-13.71 12.31,-13.62 12.26,-1.92 18.66,-1.83 19.26,-4.40 19.99,-5.62 21.00,-6.79 22.29,-7.91">
        <request index="0" response="100" foes="100" cont="0"/>
        <request index="1" response="100" foes="100" cont="0"/>
        <request index="2" response="000" foes="011" cont="0"/>
    </junction>
    <junction id="J11" type="traffic_light" x="34.86" y="-19.50" incLanes="E10_0 E10_1" intLanes=":J11_0_0 :J11_1_0 :J11_1_1" shape="34.24,-13.07 33.97,-19.46 19.26,-18.76 19.56,-12.37 20.15,-10.46 21.82,-7.74 24.27,-9.34 26.10,-10.63 27.66,-11.62 29.30,-12.35 31.37,-12.82">
        <request index="0" response="000" foes="000" cont="0"/>
        <request index="1" response="000" foes="000" cont="0"/>
        <request index="2" response="000" foes="000" cont="0"/>
    </junction>
    <junction id="J12" type="dead_end" x="73.52" y="-21.08" incLanes="" intLanes="" shape="73.52,-21.08 73.78,-14.69"/>
    <junction id="J13" type="traffic_light" x="18.64" y="-18.73" incLanes="E11_0 E11_1 E12_0 E12_1 -E13_0 -E13_1" intLanes=":J13_0_0 :J13_1_0 :J13_1_1 :J13_3_0 :J13_4_0 :J13_4_1 :J13_6_0 :J13_7_0 :J13_7_1 :J13_10_0" shape="12.39,-8.47 25.04,-8.46 25.51,-10.80 26.10,-11.64 26.92,-12.25 27.97,-12.65 29.26,-12.83 28.96,-19.22 26.80,-19.55 26.05,-20.06 25.53,-20.79 25.23,-21.75 25.16,-22.94 12.36,-23.29 11.86,-20.79 11.29,-19.91 10.51,-19.29 9.53,-18.92 8.33,-18.81 8.28,-12.41">
        <request index="0" response="0000000000" foes="0000110000" cont="0"/>
        <request index="1" response="0000000000" foes="1001110000" cont="0"/>
        <request index="2" response="0000000000" foes="1001110000" cont="0"/>
        <request index="3" response="0110000000" foes="0110000000" cont="0"/>
        <request index="4" response="1110000111" foes="1110000111" cont="0"/>
        <request index="5" response="1110000111" foes="1110000111" cont="0"/>
        <request index="6" response="1110000110" foes="1110000110" cont="0"/>
        <request index="7" response="0000000000" foes="0001111000" cont="0"/>
        <request index="8" response="0000000000" foes="0001111000" cont="0"/>
        <request index="9" response="0000000110" foes="0001110110" cont="1"/>
    </junction>
    <junction id="J14" type="dead_end" x="19.44" y="-47.83" incLanes="E13_0 E13_1" intLanes="" shape="19.44,-47.83 13.04,-48.01 19.44,-47.83"/>
    <junction id="J15" type="dead_end" x="-13.89" y="-18.97" incLanes="E14_0 E14_1" intLanes="" shape="-13.93,-12.57 -13.89,-18.97"/>
    <junction id="J8" type="dead_end" x="19.21" y="70.38" incLanes="-E7_0 -E7_1" intLanes="" shape="19.21,70.38 25.61,70.33 19.21,70.38"/>
    <junction id="J9" type="traffic_light" x="18.64" y="-0.57" incLanes="E7_0 E7_1 E15_0 E15_1" intLanes=":J9_0_0 :J9_0_1 :J9_2_0 :J9_2_1" shape="12.24,-0.38 25.04,-0.48 25.04,-0.72 12.24,-0.91">
        <request index="0" response="0000" foes="0000" cont="0"/>
        <request index="1" response="0000" foes="0000" cont="0"/>
        <request index="2" response="0000" foes="0000" cont="0"/>
        <request index="3" response="0000" foes="0000" cont="0"/>
    </junction>

    <junction id=":J13_10_0" type="internal" x="19.62" y="-20.72" incLanes=":J13_9_0 E11_0 E11_1" intLanes=":J13_0_0 :J13_1_0 :J13_1_1 :J13_4_0 :J13_4_1 :J13_6_0"/>

    <connection from="-E13" to="E15" fromLane="0" toLane="0" via=":J13_7_0" tl="J11" linkIndex="10" dir="s" state="O"/>
    <connection from="-E13" to="E15" fromLane="1" toLane="1" via=":J13_7_1" tl="J11" linkIndex="11" dir="s" state="O"/>
    <connection from="-E13" to="E14" fromLane="1" toLane="1" via=":J13_9_0" tl="J11" linkIndex="12" dir="l" state="o"/>
    <connection from="E10" to="E9" fromLane="0" toLane="0" via=":J11_0_0" tl="J11" linkIndex="0" dir="R" state="O"/>
    <connection from="E10" to="E12" fromLane="0" toLane="0" via=":J11_1_0" tl="J11" linkIndex="1" dir="s" state="O"/>
    <connection from="E10" to="E12" fromLane="1" toLane="1" via=":J11_1_1" tl="J11" linkIndex="2" dir="s" state="O"/>
    <connection from="E11" to="E14" fromLane="0" toLane="0" via=":J13_0_0" tl="J11" linkIndex="3" dir="r" state="O"/>
    <connection from="E11" to="E13" fromLane="0" toLane="0" via=":J13_1_0" tl="J11" linkIndex="4" dir="s" state="O"/>
    <connection from="E11" to="E13" fromLane="1" toLane="1" via=":J13_1_1" tl="J11" linkIndex="5" dir="s" state="O"/>
    <connection from="E12" to="E15" fromLane="0" toLane="0" via=":J13_3_0" tl="J11" linkIndex="6" dir="r" state="o"/>
    <connection from="E12" to="E14" fromLane="0" toLane="0" via=":J13_4_0" tl="J11" linkIndex="7" dir="s" state="o"/>
    <connection from="E12" to="E14" fromLane="1" toLane="1" via=":J13_4_1" tl="J11" linkIndex="8" dir="s" state="o"/>
    <connection from="E12" to="E13" fromLane="1" toLane="1" via=":J13_6_0" tl="J11" linkIndex="9" dir="l" state="o"/>
    <connection from="E15" to="-E7" fromLane="0" toLane="0" via=":J9_2_0" tl="J11" linkIndex="15" dir="s" state="O"/>
    <connection from="E15" to="-E7" fromLane="1" toLane="1" via=":J9_2_1" tl="J11" linkIndex="16" dir="s" state="O"/>
    <connection from="E7" to="E8" fromLane="0" toLane="0" via=":J9_0_0" tl="J11" linkIndex="13" dir="s" state="O"/>
    <connection from="E7" to="E8" fromLane="1" toLane="1" via=":J9_0_1" tl="J11" linkIndex="14" dir="s" state="O"/>
    <connection from="E8" to="E11" fromLane="0" toLane="0" via=":J10_2_0" dir="s" state="M"/>
    <connection from="E9" to="E11" fromLane="0" toLane="0" via=":J10_0_0" dir="l" state="m"/>
    <connection from="E9" to="E11" fromLane="0" toLane="1" via=":J10_0_1" dir="l" state="m"/>

    <connection from=":J10_0" to="E11" fromLane="0" toLane="0" dir="l" state="M"/>
    <connection from=":J10_0" to="E11" fromLane="1" toLane="1" dir="l" state="M"/>
    <connection from=":J10_2" to="E11" fromLane="0" toLane="0" dir="s" state="M"/>
    <connection from=":J11_0" to="E9" fromLane="0" toLane="0" dir="R" state="M"/>
    <connection from=":J11_1" to="E12" fromLane="0" toLane="0" dir="s" state="M"/>
    <connection from=":J11_1" to="E12" fromLane="1" toLane="1" dir="s" state="M"/>
    <connection from=":J13_0" to="E14" fromLane="0" toLane="0" dir="r" state="M"/>
    <connection from=":J13_1" to="E13" fromLane="0" toLane="0" dir="s" state="M"/>
    <connection from=":J13_1" to="E13" fromLane="1" toLane="1" dir="s" state="M"/>
    <connection from=":J13_3" to="E15" fromLane="0" toLane="0" dir="r" state="M"/>
    <connection from=":J13_4" to="E14" fromLane="0" toLane="0" dir="s" state="M"/>
    <connection from=":J13_4" to="E14" fromLane="1" toLane="1" dir="s" state="M"/>
    <connection from=":J13_6" to="E13" fromLane="0" toLane="1" dir="l" state="M"/>
    <connection from=":J13_7" to="E15" fromLane="0" toLane="0" dir="s" state="M"/>
    <connection from=":J13_7" to="E15" fromLane="1" toLane="1" dir="s" state="M"/>
    <connection from=":J13_9" to="E14" fromLane="0" toLane="1" via=":J13_10_0" dir="l" state="m"/>
    <connection from=":J13_10" to="E14" fromLane="0" toLane="1" dir="l" state="M"/>
    <connection from=":J9_0" to="E8" fromLane="0" toLane="0" dir="s" state="M"/>
    <connection from=":J9_0" to="E8" fromLane="1" toLane="1" dir="s" state="M"/>
    <connection from=":J9_2" to="-E7" fromLane="0" toLane="0" dir="s" state="M"/>
    <connection from=":J9_2" to="-E7" fromLane="1" toLane="1" dir="s" state="M"/>

</net>
