<?xml version="1.0" encoding="UTF-8"?>

<!-- generated on 2023-11-02 20:57:53 by Eclipse SUMO sumo Version 1.18.0
-->

<configuration xmlns:xsi="http://www.w3.org/2001/XMLSchema-instance" xsi:noNamespaceSchemaLocation="http://sumo.dlr.de/xsd/sumoConfiguration.xsd">

    <input>
        <net-file value="tests5.net.xml"/>
        <route-files value="tests5.rou.xml"/>
    </input>

</configuration>
