<?xml version="1.0" encoding="UTF-8"?>

<!-- generated on 2023-11-02 20:57:53 by Eclipse SUMO netedit Version 1.18.0
-->

<routes xmlns:xsi="http://www.w3.org/2001/XMLSchema-instance" xsi:noNamespaceSchemaLocation="http://sumo.dlr.de/xsd/routes_file.xsd">
    <!-- Vehicles, persons and containers (sorted by depart) -->
    <flow id="f_0" type="DEFAULT_BIKETYPE" begin="0.00" color="green" from="E10" to="E13" via="E9 E11" end="3600.00" vehsPerHour="1800.00"/>
    <flow id="f_1" type="DEFAULT_BIKETYPE" begin="0.00" from="E10" to="E14" end="3600.00" vehsPerHour="1800.00"/>
    <flow id="f_2" begin="0.00" from="E7" to="E13" end="3600.00" vehsPerHour="1800.00"/>
    <flow id="f_3" begin="0.00" from="-E13" to="-E7" end="3600.00" vehsPerHour="1800.00"/>
</routes>
