<?xml version="1.0" encoding="UTF-8"?>

<!-- generated on 2023-11-02 16:34:07 by Eclipse SUMO netedit Version 1.18.0
<configuration xmlns:xsi="http://www.w3.org/2001/XMLSchema-instance" xsi:noNamespaceSchemaLocation="http://sumo.dlr.de/xsd/neteditConfiguration.xsd">

    <input>
        <sumocfg-file value="C:\Program Files (x86)\Eclipse\Sumo\thesis_test\tes4.sumocfg"/>
        <additional-files value=""/>
        <route-files value="C:\Program Files (x86)\Eclipse\Sumo\thesis_test\car.rou.xml"/>
        <sumo-net-file value="C:\Program Files (x86)\Eclipse\Sumo\thesis_test\test4.net.xml"/>
    </input>

    <output>
        <output-file value="C:\Program Files (x86)\Eclipse\Sumo\thesis_test\test4.net.xml"/>
    </output>

    <processing>
        <geometry.min-radius.fix.railways value="false"/>
        <geometry.max-grade.fix value="false"/>
        <offset.disable-normalization value="true"/>
        <lefthand value="0"/>
    </processing>

    <junctions>
        <no-turnarounds value="true"/>
        <junctions.corner-detail value="5"/>
        <junctions.limit-turn-speed value="5.50"/>
        <rectangular-lane-cut value="0"/>
    </junctions>

    <pedestrian>
        <walkingareas value="0"/>
    </pedestrian>

</configuration>
-->

<net version="1.16" junctionCornerDetail="5" limitTurnSpeed="5.50" xmlns:xsi="http://www.w3.org/2001/XMLSchema-instance" xsi:noNamespaceSchemaLocation="http://sumo.dlr.de/xsd/net_file.xsd">

    <location netOffset="0.00,0.00" convBoundary="-200.00,-200.00,2000.00,400.00" origBoundary="-10000000000.00,-10000000000.00,10000000000.00,10000000000.00" projParameter="!"/>

    <edge id=":J1_0" function="internal">
        <lane id=":J1_0_0" index="0" speed="6.54" length="9.11" shape="1691.68,115.30 1691.33,112.85 1690.26,111.09 1688.48,110.03 1686.00,109.67"/>
    </edge>
    <edge id=":J1_1" function="internal">
        <lane id=":J1_1_0" index="0" speed="13.89" length="27.22" shape="1691.68,115.30 1691.70,88.08"/>
        <lane id=":J1_1_1" index="1" speed="13.89" length="27.22" shape="1694.88,115.30 1694.90,88.08"/>
        <lane id=":J1_1_2" index="2" speed="13.89" length="27.22" shape="1698.08,115.30 1698.10,88.08"/>
    </edge>
    <edge id=":J1_4" function="internal">
        <lane id=":J1_4_0" index="0" speed="10.40" length="4.99" shape="1698.08,115.30 1698.79,110.37"/>
    </edge>
    <edge id=":J1_22" function="internal">
        <lane id=":J1_22_0" index="0" speed="10.40" length="19.57" shape="1698.79,110.37 1699.04,108.67 1701.90,103.92 1706.67,101.06 1713.35,100.07"/>
    </edge>
    <edge id=":J1_5" function="internal">
        <lane id=":J1_5_0" index="0" speed="6.56" length="9.15" shape="1713.40,109.67 1710.90,110.04 1709.11,111.10 1708.04,112.85 1707.68,115.31"/>
    </edge>
    <edge id=":J1_6" function="internal">
        <lane id=":J1_6_0" index="0" speed="13.89" length="27.37" shape="1713.40,109.67 1686.00,109.67"/>
        <lane id=":J1_6_1" index="1" speed="13.89" length="27.37" shape="1713.38,106.47 1686.02,106.47"/>
        <lane id=":J1_6_2" index="2" speed="13.89" length="27.37" shape="1713.37,103.27 1686.03,103.27"/>
    </edge>
    <edge id=":J1_9" function="internal">
        <lane id=":J1_9_0" index="0" speed="10.87" length="6.31" shape="1713.37,103.27 1707.09,102.56"/>
        <lane id=":J1_9_1" index="1" speed="10.35" length="5.22" shape="1713.37,103.27 1708.20,102.56"/>
    </edge>
    <edge id=":J1_23" function="internal">
        <lane id=":J1_23_0" index="0" speed="10.87" length="20.92" shape="1707.09,102.56 1705.28,102.36 1699.51,99.53 1696.05,94.77 1694.90,88.08"/>
    </edge>
    <edge id=":J1_24" function="internal">
        <lane id=":J1_24_0" index="0" speed="10.35" length="19.38" shape="1708.20,102.56 1706.68,102.35 1701.91,99.52 1699.05,94.76 1698.10,88.08"/>
    </edge>
    <edge id=":J1_11" function="internal">
        <lane id=":J1_11_0" index="0" speed="6.49" length="9.03" shape="1707.70,88.09 1708.05,90.54 1709.10,92.29 1710.85,93.33 1713.31,93.67"/>
    </edge>
    <edge id=":J1_12" function="internal">
        <lane id=":J1_12_0" index="0" speed="13.89" length="27.22" shape="1707.70,88.09 1707.68,115.31"/>
        <lane id=":J1_12_1" index="1" speed="13.89" length="27.22" shape="1704.50,88.09 1704.48,115.31"/>
        <lane id=":J1_12_2" index="2" speed="13.89" length="27.22" shape="1701.30,88.09 1701.28,115.30"/>
    </edge>
    <edge id=":J1_15" function="internal">
        <lane id=":J1_15_0" index="0" speed="10.88" length="6.01" shape="1701.30,88.09 1700.59,94.06"/>
        <lane id=":J1_15_1" index="1" speed="10.36" length="5.01" shape="1701.30,88.09 1700.59,93.05"/>
    </edge>
    <edge id=":J1_25" function="internal">
        <lane id=":J1_25_0" index="0" speed="10.88" length="21.21" shape="1700.59,94.06 1700.34,96.16 1697.47,101.92 1692.70,105.35 1686.02,106.47"/>
    </edge>
    <edge id=":J1_26" function="internal">
        <lane id=":J1_26_0" index="0" speed="10.36" length="19.57" shape="1700.59,93.05 1700.34,94.76 1697.48,99.52 1692.71,102.35 1686.03,103.27"/>
    </edge>
    <edge id=":J1_17" function="internal">
        <lane id=":J1_17_0" index="0" speed="6.50" length="9.05" shape="1686.09,93.67 1688.54,93.33 1690.30,92.29 1691.35,90.54 1691.70,88.08"/>
    </edge>
    <edge id=":J1_18" function="internal">
        <lane id=":J1_18_0" index="0" speed="13.89" length="27.26" shape="1686.09,93.67 1713.31,93.67"/>
        <lane id=":J1_18_1" index="1" speed="13.89" length="27.26" shape="1686.07,96.87 1713.33,96.87"/>
        <lane id=":J1_18_2" index="2" speed="13.89" length="27.26" shape="1686.05,100.07 1713.35,100.07"/>
    </edge>
    <edge id=":J1_21" function="internal">
        <lane id=":J1_21_0" index="0" speed="10.39" length="4.85" shape="1686.05,100.07 1690.85,100.78"/>
    </edge>
    <edge id=":J1_27" function="internal">
        <lane id=":J1_27_0" index="0" speed="10.39" length="19.68" shape="1690.85,100.78 1692.72,101.06 1697.48,103.92 1700.33,108.67 1701.28,115.30"/>
    </edge>
    <edge id=":J12_0" function="internal">
        <lane id=":J12_0_0" index="0" speed="13.89" length="0.28" shape="908.04,117.17 908.04,117.43"/>
        <lane id=":J12_0_1" index="1" speed="13.89" length="0.28" shape="904.84,117.12 904.84,117.39"/>
        <lane id=":J12_0_2" index="2" speed="13.89" length="0.28" shape="901.64,117.07 901.64,117.36"/>
    </edge>
    <edge id=":J12_3" function="internal">
        <lane id=":J12_3_0" index="0" speed="5.58" length="4.67" shape="901.64,117.07 899.19,120.63 896.77,121.79"/>
        <lane id=":J12_3_1" index="1" speed="4.72" length="4.67" shape="901.64,117.07 900.00,119.44 898.39,120.21"/>
        <lane id=":J12_3_2" index="2" speed="3.65" length="4.67" shape="901.64,117.07 900.82,118.25 900.02,118.64"/>
    </edge>
    <edge id=":J12_9" function="internal">
        <lane id=":J12_9_0" index="0" speed="5.58" length="7.01" shape="896.77,121.79 894.39,120.55 892.04,116.91"/>
    </edge>
    <edge id=":J12_10" function="internal">
        <lane id=":J12_10_0" index="0" speed="4.72" length="4.67" shape="898.39,120.21 896.81,119.39 895.24,116.97"/>
    </edge>
    <edge id=":J12_11" function="internal">
        <lane id=":J12_11_0" index="0" speed="3.65" length="2.34" shape="900.02,118.64 899.22,118.23 898.44,117.02"/>
    </edge>
    <edge id=":J12_6" function="internal">
        <lane id=":J12_6_0" index="0" speed="13.89" length="0.32" shape="892.04,117.25 892.04,116.91"/>
        <lane id=":J12_6_1" index="1" speed="13.89" length="0.32" shape="895.24,117.29 895.24,116.97"/>
        <lane id=":J12_6_2" index="2" speed="13.89" length="0.32" shape="898.44,117.32 898.44,117.02"/>
    </edge>
    <edge id=":J13_0" function="internal">
        <lane id=":J13_0_0" index="0" speed="13.89" length="0.35" shape="891.84,135.05 891.84,134.66"/>
        <lane id=":J13_0_1" index="1" speed="13.89" length="0.35" shape="895.04,135.05 895.04,134.70"/>
        <lane id=":J13_0_2" index="2" speed="13.89" length="0.35" shape="898.24,135.05 898.24,134.74"/>
    </edge>
    <edge id=":J13_3" function="internal">
        <lane id=":J13_3_0" index="0" speed="13.89" length="0.24" shape="907.84,134.84 907.84,135.04"/>
        <lane id=":J13_3_1" index="1" speed="13.89" length="0.24" shape="904.64,134.81 904.64,135.04"/>
        <lane id=":J13_3_2" index="2" speed="13.89" length="0.24" shape="901.44,134.77 901.44,135.05"/>
    </edge>
    <edge id=":J18_0" function="internal">
        <lane id=":J18_0_0" index="0" speed="13.89" length="0.31" shape="1691.66,139.51 1691.66,139.19"/>
        <lane id=":J18_0_1" index="1" speed="13.89" length="0.31" shape="1694.86,139.51 1694.86,139.20"/>
        <lane id=":J18_0_2" index="2" speed="13.89" length="0.31" shape="1698.06,139.50 1698.06,139.20"/>
    </edge>
    <edge id=":J18_3" function="internal">
        <lane id=":J18_3_0" index="0" speed="13.89" length="0.29" shape="1707.66,139.21 1707.66,139.49"/>
        <lane id=":J18_3_1" index="1" speed="13.89" length="0.29" shape="1704.46,139.20 1704.46,139.49"/>
        <lane id=":J18_3_2" index="2" speed="13.89" length="0.29" shape="1701.26,139.20 1701.26,139.50"/>
    </edge>
    <edge id=":J18_6" function="internal">
        <lane id=":J18_6_0" index="0" speed="5.58" length="4.67" shape="1701.26,139.20 1698.86,142.80 1696.46,144.00"/>
        <lane id=":J18_6_1" index="1" speed="4.72" length="4.67" shape="1701.26,139.20 1699.66,141.60 1698.06,142.40"/>
        <lane id=":J18_6_2" index="2" speed="3.65" length="4.67" shape="1701.26,139.20 1700.46,140.40 1699.66,140.80"/>
    </edge>
    <edge id=":J18_9" function="internal">
        <lane id=":J18_9_0" index="0" speed="5.58" length="7.01" shape="1696.46,144.00 1694.06,142.80 1691.66,139.19"/>
    </edge>
    <edge id=":J18_10" function="internal">
        <lane id=":J18_10_0" index="0" speed="4.72" length="4.67" shape="1698.06,142.40 1696.46,141.60 1694.86,139.20"/>
    </edge>
    <edge id=":J18_11" function="internal">
        <lane id=":J18_11_0" index="0" speed="3.65" length="2.34" shape="1699.66,140.80 1698.86,140.40 1698.06,139.20"/>
    </edge>
    <edge id=":J3_0" function="internal">
        <lane id=":J3_0_0" index="0" speed="6.51" length="9.03" shape="92.00,113.60 91.65,111.15 90.60,109.40 88.85,108.35 86.40,108.00"/>
    </edge>
    <edge id=":J3_1" function="internal">
        <lane id=":J3_1_0" index="0" speed="13.89" length="27.20" shape="92.00,113.60 92.00,86.40"/>
        <lane id=":J3_1_1" index="1" speed="13.89" length="27.20" shape="95.20,113.60 95.20,86.40"/>
    </edge>
    <edge id=":J3_3" function="internal">
        <lane id=":J3_3_0" index="0" speed="10.36" length="24.51" shape="98.40,113.60 99.35,106.95 102.20,102.20 106.95,99.35 113.60,98.40"/>
    </edge>
    <edge id=":J3_4" function="internal">
        <lane id=":J3_4_0" index="0" speed="6.51" length="9.03" shape="113.60,108.00 111.15,108.35 109.40,109.40 108.35,111.15 108.00,113.60"/>
    </edge>
    <edge id=":J3_5" function="internal">
        <lane id=":J3_5_0" index="0" speed="13.89" length="27.20" shape="113.60,108.00 86.40,108.00"/>
        <lane id=":J3_5_1" index="1" speed="13.89" length="27.20" shape="113.60,104.80 86.40,104.80"/>
    </edge>
    <edge id=":J3_7" function="internal">
        <lane id=":J3_7_0" index="0" speed="10.36" length="24.51" shape="113.60,101.60 106.95,100.65 102.20,97.80 99.35,93.05 98.40,86.40"/>
    </edge>
    <edge id=":J3_8" function="internal">
        <lane id=":J3_8_0" index="0" speed="6.51" length="9.03" shape="108.00,86.40 108.35,88.85 109.40,90.60 111.15,91.65 113.60,92.00"/>
    </edge>
    <edge id=":J3_9" function="internal">
        <lane id=":J3_9_0" index="0" speed="13.89" length="27.20" shape="108.00,86.40 108.00,113.60"/>
        <lane id=":J3_9_1" index="1" speed="13.89" length="27.20" shape="104.80,86.40 104.80,113.60"/>
    </edge>
    <edge id=":J3_11" function="internal">
        <lane id=":J3_11_0" index="0" speed="10.36" length="24.51" shape="101.60,86.40 100.65,93.05 97.80,97.80 93.05,100.65 86.40,101.60"/>
    </edge>
    <edge id=":J3_12" function="internal">
        <lane id=":J3_12_0" index="0" speed="6.51" length="9.03" shape="86.40,92.00 88.85,91.65 90.60,90.60 91.65,88.85 92.00,86.40"/>
    </edge>
    <edge id=":J3_13" function="internal">
        <lane id=":J3_13_0" index="0" speed="13.89" length="27.20" shape="86.40,92.00 113.60,92.00"/>
        <lane id=":J3_13_1" index="1" speed="13.89" length="27.20" shape="86.40,95.20 113.60,95.20"/>
    </edge>
    <edge id=":J3_15" function="internal">
        <lane id=":J3_15_0" index="0" speed="10.36" length="24.51" shape="86.40,98.40 93.05,99.35 97.80,102.20 100.65,106.95 101.60,113.60"/>
    </edge>
    <edge id=":J8_0" function="internal">
        <lane id=":J8_0_0" index="0" speed="6.66" length="9.39" shape="913.90,108.00 911.39,108.37 909.59,109.47 908.49,111.31 908.09,113.88"/>
    </edge>
    <edge id=":J8_1" function="internal">
        <lane id=":J8_1_0" index="0" speed="13.89" length="27.34" shape="913.90,108.00 886.56,108.00"/>
        <lane id=":J8_1_1" index="1" speed="13.89" length="27.34" shape="913.90,104.80 886.56,104.80"/>
    </edge>
    <edge id=":J8_3" function="internal">
        <lane id=":J8_3_0" index="0" speed="10.37" length="12.06" shape="913.90,101.60 907.25,100.65 902.67,97.90"/>
    </edge>
    <edge id=":J8_16" function="internal">
        <lane id=":J8_16_0" index="0" speed="10.37" length="12.45" shape="902.67,97.90 902.50,97.80 899.65,93.05 898.70,86.39"/>
    </edge>
    <edge id=":J8_4" function="internal">
        <lane id=":J8_4_0" index="0" speed="6.51" length="9.05" shape="908.30,86.38 908.65,88.84 909.70,90.60 911.45,91.65 913.90,92.00"/>
    </edge>
    <edge id=":J8_5" function="internal">
        <lane id=":J8_5_0" index="0" speed="13.89" length="27.47" shape="908.30,86.38 908.09,113.88"/>
        <lane id=":J8_5_1" index="1" speed="13.89" length="27.47" shape="905.10,86.39 904.89,113.83"/>
    </edge>
    <edge id=":J8_7" function="internal">
        <lane id=":J8_7_0" index="0" speed="10.39" length="24.64" shape="901.90,86.39 900.94,93.04 898.07,97.80 893.27,100.65 886.56,101.60"/>
    </edge>
    <edge id=":J8_8" function="internal">
        <lane id=":J8_8_0" index="0" speed="6.54" length="9.15" shape="886.56,92.00 889.07,91.65 890.86,90.60 891.94,88.85 892.30,86.40"/>
    </edge>
    <edge id=":J8_9" function="internal">
        <lane id=":J8_9_0" index="0" speed="13.89" length="27.34" shape="886.56,92.00 913.90,92.00"/>
        <lane id=":J8_9_1" index="1" speed="13.89" length="27.34" shape="886.56,95.20 913.90,95.20"/>
    </edge>
    <edge id=":J8_11" function="internal">
        <lane id=":J8_11_0" index="0" speed="10.34" length="12.10" shape="886.56,98.40 893.27,99.36 897.82,102.12"/>
    </edge>
    <edge id=":J8_17" function="internal">
        <lane id=":J8_17_0" index="0" speed="10.34" length="12.59" shape="897.82,102.12 898.03,102.24 900.84,107.05 901.69,113.78"/>
    </edge>
    <edge id=":J8_12" function="internal">
        <lane id=":J8_12_0" index="0" speed="6.47" length="9.03" shape="892.10,113.62 891.78,111.16 890.75,109.41 889.01,108.35 886.56,108.00"/>
    </edge>
    <edge id=":J8_13" function="internal">
        <lane id=":J8_13_0" index="0" speed="13.89" length="27.25" shape="892.10,113.62 892.30,86.40"/>
        <lane id=":J8_13_1" index="1" speed="13.89" length="27.25" shape="895.29,113.67 895.50,86.40"/>
    </edge>
    <edge id=":J8_15" function="internal">
        <lane id=":J8_15_0" index="0" speed="10.46" length="24.69" shape="898.49,113.73 899.55,107.02 902.47,102.23 907.25,99.36 913.90,98.40"/>
    </edge>

    <edge id="-E0" from="J1" to="J0" priority="-1">
        <lane id="-E0_0" index="0" speed="13.89" length="286.05" shape="1686.00,109.67 1399.95,108.00"/>
        <lane id="-E0_1" index="1" speed="13.89" length="286.05" shape="1686.02,106.47 1399.97,104.80"/>
        <lane id="-E0_2" index="2" speed="13.89" length="286.05" shape="1686.03,103.27 1399.99,101.60"/>
    </edge>
    <edge id="-E1" from="J3" to="J2" priority="-1">
        <lane id="-E1_0" index="0" speed="13.89" length="286.40" shape="86.40,108.00 -200.00,108.00"/>
        <lane id="-E1_1" index="1" speed="13.89" length="286.40" shape="86.40,104.80 -200.00,104.80"/>
        <lane id="-E1_2" index="2" speed="13.89" length="286.40" shape="86.40,101.60 -200.00,101.60"/>
    </edge>
    <edge id="-E10" from="J15" to="J18" priority="-1">
        <lane id="-E10_0" index="0" speed="13.89" length="260.50" shape="1692.00,400.01 1691.66,139.51"/>
        <lane id="-E10_1" index="1" speed="13.89" length="260.50" shape="1695.20,400.01 1694.86,139.51"/>
        <lane id="-E10_2" index="2" speed="13.89" length="260.50" shape="1698.40,400.00 1698.06,139.50"/>
    </edge>
    <edge id="-E10.282" from="J18" to="J1" priority="-1">
        <lane id="-E10.282_0" index="0" speed="13.89" length="23.90" shape="1691.66,139.19 1691.68,115.30"/>
        <lane id="-E10.282_1" index="1" speed="13.89" length="23.90" shape="1694.86,139.20 1694.88,115.30"/>
        <lane id="-E10.282_2" index="2" speed="13.89" length="23.90" shape="1698.06,139.20 1698.08,115.30"/>
    </edge>
    <edge id="-E11" from="J1" to="J16" priority="-1">
        <lane id="-E11_0" index="0" speed="13.89" length="288.08" shape="1691.70,88.08 1692.00,-200.01"/>
        <lane id="-E11_1" index="1" speed="13.89" length="288.08" shape="1694.90,88.08 1695.20,-200.00"/>
        <lane id="-E11_2" index="2" speed="13.89" length="288.08" shape="1698.10,88.08 1698.40,-200.00"/>
    </edge>
    <edge id="-E2" from="J4" to="J3" priority="-1">
        <lane id="-E2_0" index="0" speed="13.89" length="286.40" shape="400.00,108.00 113.60,108.00"/>
        <lane id="-E2_1" index="1" speed="13.89" length="286.40" shape="400.00,104.80 113.60,104.80"/>
        <lane id="-E2_2" index="2" speed="13.89" length="286.40" shape="400.00,101.60 113.60,101.60"/>
    </edge>
    <edge id="-E3" from="J5" to="J3" priority="-1">
        <lane id="-E3_0" index="0" speed="13.89" length="286.40" shape="108.00,-200.00 108.00,86.40"/>
        <lane id="-E3_1" index="1" speed="13.89" length="286.40" shape="104.80,-200.00 104.80,86.40"/>
        <lane id="-E3_2" index="2" speed="13.89" length="286.40" shape="101.60,-200.00 101.60,86.40"/>
    </edge>
    <edge id="-E4" from="J6" to="J3" priority="-1">
        <lane id="-E4_0" index="0" speed="13.89" length="286.40" shape="92.00,400.00 92.00,113.60"/>
        <lane id="-E4_1" index="1" speed="13.89" length="286.40" shape="95.20,400.00 95.20,113.60"/>
        <lane id="-E4_2" index="2" speed="13.89" length="286.40" shape="98.40,400.00 98.40,113.60"/>
    </edge>
    <edge id="-E5" from="J8" to="J7" priority="-1">
        <lane id="-E5_0" index="0" speed="13.89" length="286.56" shape="886.56,108.00 600.00,108.00"/>
        <lane id="-E5_1" index="1" speed="13.89" length="286.56" shape="886.56,104.80 600.00,104.80"/>
        <lane id="-E5_2" index="2" speed="13.89" length="286.56" shape="886.56,101.60 600.00,101.60"/>
    </edge>
    <edge id="-E6" from="J9" to="J13" priority="-1">
        <lane id="-E6_0" index="0" speed="13.89" length="264.95" shape="892.00,400.00 891.84,135.05"/>
        <lane id="-E6_1" index="1" speed="13.89" length="264.95" shape="895.20,400.00 895.04,135.05"/>
        <lane id="-E6_2" index="2" speed="13.89" length="264.95" shape="898.40,400.00 898.24,135.05"/>
    </edge>
    <edge id="-E6.280" from="J12" to="J8" priority="-1">
        <lane id="-E6.280_0" index="0" speed="13.89" length="3.29" shape="892.04,116.91 892.10,113.62"/>
        <lane id="-E6.280_1" index="1" speed="13.89" length="3.29" shape="895.24,116.97 895.29,113.67"/>
        <lane id="-E6.280_2" index="2" speed="13.89" length="3.29" shape="898.44,117.02 898.49,113.73"/>
    </edge>
    <edge id="-E60" from="J13" to="J12" priority="-1">
        <lane id="-E60_0" index="0" speed="13.89" length="17.42" shape="891.84,134.66 892.04,117.25"/>
        <lane id="-E60_1" index="1" speed="13.89" length="17.42" shape="895.04,134.70 895.24,117.29"/>
        <lane id="-E60_2" index="2" speed="13.89" length="17.42" shape="898.24,134.74 898.44,117.32"/>
    </edge>
    <edge id="-E7" from="J10" to="J8" priority="-1">
        <lane id="-E7_0" index="0" speed="13.89" length="286.10" shape="1200.00,108.00 913.90,108.00"/>
        <lane id="-E7_1" index="1" speed="13.89" length="286.10" shape="1200.00,104.80 913.90,104.80"/>
        <lane id="-E7_2" index="2" speed="13.89" length="286.10" shape="1200.00,101.60 913.90,101.60"/>
    </edge>
    <edge id="-E8" from="J11" to="J8" priority="-1">
        <lane id="-E8_0" index="0" speed="13.89" length="286.39" shape="908.00,-200.01 908.30,86.38"/>
        <lane id="-E8_1" index="1" speed="13.89" length="286.39" shape="904.80,-200.00 905.10,86.39"/>
        <lane id="-E8_2" index="2" speed="13.89" length="286.39" shape="901.60,-200.00 901.90,86.39"/>
    </edge>
    <edge id="-E9" from="J14" to="J1" priority="-1">
        <lane id="-E9_0" index="0" speed="13.89" length="286.65" shape="2000.05,108.00 1713.40,109.67"/>
        <lane id="-E9_1" index="1" speed="13.89" length="286.65" shape="2000.03,104.80 1713.38,106.47"/>
        <lane id="-E9_2" index="2" speed="13.89" length="286.65" shape="2000.01,101.60 1713.37,103.27"/>
    </edge>
    <edge id="E0" from="J0" to="J1" priority="-1">
        <lane id="E0_0" index="0" speed="13.89" length="286.05" shape="1400.05,92.00 1686.09,93.67"/>
        <lane id="E0_1" index="1" speed="13.89" length="286.05" shape="1400.03,95.20 1686.07,96.87"/>
        <lane id="E0_2" index="2" speed="13.89" length="286.05" shape="1400.01,98.40 1686.05,100.07"/>
    </edge>
    <edge id="E1" from="J2" to="J3" priority="-1">
        <lane id="E1_0" index="0" speed="13.89" length="286.40" shape="-200.00,92.00 86.40,92.00"/>
        <lane id="E1_1" index="1" speed="13.89" length="286.40" shape="-200.00,95.20 86.40,95.20"/>
        <lane id="E1_2" index="2" speed="13.89" length="286.40" shape="-200.00,98.40 86.40,98.40"/>
    </edge>
    <edge id="E10" from="J1" to="J18" priority="-1">
        <lane id="E10_0" index="0" speed="13.89" length="23.90" shape="1707.68,115.31 1707.66,139.21"/>
        <lane id="E10_1" index="1" speed="13.89" length="23.90" shape="1704.48,115.31 1704.46,139.20"/>
        <lane id="E10_2" index="2" speed="13.89" length="23.90" shape="1701.28,115.30 1701.26,139.20"/>
    </edge>
    <edge id="E100" from="J18" to="J15" priority="-1">
        <lane id="E100_0" index="0" speed="13.89" length="260.50" shape="1707.66,139.49 1708.00,399.99"/>
        <lane id="E100_1" index="1" speed="13.89" length="260.50" shape="1704.46,139.49 1704.80,399.99"/>
        <lane id="E100_2" index="2" speed="13.89" length="260.50" shape="1701.26,139.50 1701.60,400.00"/>
    </edge>
    <edge id="E11" from="J16" to="J1" priority="-1">
        <lane id="E11_0" index="0" speed="13.89" length="288.08" shape="1708.00,-199.99 1707.70,88.09"/>
        <lane id="E11_1" index="1" speed="13.89" length="288.08" shape="1704.80,-200.00 1704.50,88.09"/>
        <lane id="E11_2" index="2" speed="13.89" length="288.08" shape="1701.60,-200.00 1701.30,88.09"/>
    </edge>
    <edge id="E2" from="J3" to="J4" priority="-1">
        <lane id="E2_0" index="0" speed="13.89" length="286.40" shape="113.60,92.00 400.00,92.00"/>
        <lane id="E2_1" index="1" speed="13.89" length="286.40" shape="113.60,95.20 400.00,95.20"/>
        <lane id="E2_2" index="2" speed="13.89" length="286.40" shape="113.60,98.40 400.00,98.40"/>
    </edge>
    <edge id="E3" from="J3" to="J5" priority="-1">
        <lane id="E3_0" index="0" speed="13.89" length="286.40" shape="92.00,86.40 92.00,-200.00"/>
        <lane id="E3_1" index="1" speed="13.89" length="286.40" shape="95.20,86.40 95.20,-200.00"/>
        <lane id="E3_2" index="2" speed="13.89" length="286.40" shape="98.40,86.40 98.40,-200.00"/>
    </edge>
    <edge id="E4" from="J3" to="J6" priority="-1">
        <lane id="E4_0" index="0" speed="13.89" length="286.40" shape="108.00,113.60 108.00,400.00"/>
        <lane id="E4_1" index="1" speed="13.89" length="286.40" shape="104.80,113.60 104.80,400.00"/>
        <lane id="E4_2" index="2" speed="13.89" length="286.40" shape="101.60,113.60 101.60,400.00"/>
    </edge>
    <edge id="E5" from="J7" to="J8" priority="-1">
        <lane id="E5_0" index="0" speed="13.89" length="286.56" shape="600.00,92.00 886.56,92.00"/>
        <lane id="E5_1" index="1" speed="13.89" length="286.56" shape="600.00,95.20 886.56,95.20"/>
        <lane id="E5_2" index="2" speed="13.89" length="286.56" shape="600.00,98.40 886.56,98.40"/>
    </edge>
    <edge id="E6" from="J8" to="J12" priority="1">
        <lane id="E6_0" index="0" speed="13.89" length="3.29" shape="908.09,113.88 908.04,117.17"/>
        <lane id="E6_1" index="1" speed="13.89" length="3.29" shape="904.89,113.83 904.84,117.12"/>
        <lane id="E6_2" index="2" speed="13.89" length="3.29" shape="901.69,113.78 901.64,117.07"/>
    </edge>
    <edge id="E60" from="J12" to="J13" priority="-1">
        <lane id="E60_0" index="0" speed="13.89" length="17.42" shape="908.04,117.43 907.84,134.84"/>
        <lane id="E60_1" index="1" speed="13.89" length="17.42" shape="904.84,117.39 904.64,134.81"/>
        <lane id="E60_2" index="2" speed="13.89" length="17.42" shape="901.64,117.36 901.44,134.77"/>
    </edge>
    <edge id="E60.7" from="J13" to="J9" priority="-1">
        <lane id="E60.7_0" index="0" speed="13.89" length="264.95" shape="907.84,135.04 908.00,400.00"/>
        <lane id="E60.7_1" index="1" speed="13.89" length="264.95" shape="904.64,135.04 904.80,400.00"/>
        <lane id="E60.7_2" index="2" speed="13.89" length="264.95" shape="901.44,135.05 901.60,400.00"/>
    </edge>
    <edge id="E7" from="J8" to="J10" priority="-1">
        <lane id="E7_0" index="0" speed="13.89" length="286.10" shape="913.90,92.00 1200.00,92.00"/>
        <lane id="E7_1" index="1" speed="13.89" length="286.10" shape="913.90,95.20 1200.00,95.20"/>
        <lane id="E7_2" index="2" speed="13.89" length="286.10" shape="913.90,98.40 1200.00,98.40"/>
    </edge>
    <edge id="E8" from="J8" to="J11" priority="-1">
        <lane id="E8_0" index="0" speed="13.89" length="286.39" shape="892.30,86.40 892.00,-199.99"/>
        <lane id="E8_1" index="1" speed="13.89" length="286.39" shape="895.50,86.40 895.20,-200.00"/>
        <lane id="E8_2" index="2" speed="13.89" length="286.39" shape="898.70,86.39 898.40,-200.00"/>
    </edge>
    <edge id="E9" from="J1" to="J14" priority="-1">
        <lane id="E9_0" index="0" speed="13.89" length="286.65" shape="1713.31,93.67 1999.95,92.00"/>
        <lane id="E9_1" index="1" speed="13.89" length="286.65" shape="1713.33,96.87 1999.97,95.20"/>
        <lane id="E9_2" index="2" speed="13.89" length="286.65" shape="1713.35,100.07 1999.99,98.40"/>
    </edge>

    <tlLogic id="J1" type="static" programID="0" offset="0">
        <phase duration="42" state="GGGGgrrrrrrGGGGggrrrrr"/>
        <phase duration="3"  state="yyyyyrrrrrryyyyyyrrrrr"/>
        <phase duration="42" state="rrrrrGGGGggrrrrrrGGGGg"/>
        <phase duration="3"  state="rrrrryyyyyyrrrrrryyyyy"/>
    </tlLogic>
    <tlLogic id="J13" type="static" programID="0" offset="0">
        <phase duration="82" state="GGGGGG"/>
        <phase duration="3"  state="yyyyyy"/>
        <phase duration="5"  state="rrrrrr"/>
    </tlLogic>
    <tlLogic id="J3" type="static" programID="0" offset="0">
        <phase duration="60" state="GGGrrrrrGGGrrrrr"/>
        <phase duration="6"  state="yyyrrrrryyyrrrrr"/>
        <phase duration="30" state="rrrGrrrrrrrGrrrr"/>
        <phase duration="6"  state="rrryrrrrrrryrrrr"/>
        <phase duration="60" state="rrrrGGGrrrrrGGGr"/>
        <phase duration="6"  state="rrrryyyrrrrryyyr"/>
        <phase duration="30" state="rrrrrrrGrrrrrrrG"/>
        <phase duration="6"  state="rrrrrrryrrrrrrry"/>
    </tlLogic>

    <junction id="J0" type="dead_end" x="1400.00" y="100.00" incLanes="-E0_0 -E0_1 -E0_2" intLanes="" shape="1400.00,100.00 1399.94,109.60 1400.00,100.00"/>
    <junction id="J1" type="traffic_light" x="1699.69" y="101.75" incLanes="-E10.282_0 -E10.282_1 -E10.282_2 -E9_0 -E9_1 -E9_2 E11_0 E11_1 E11_2 E0_0 E0_1 E0_2" intLanes=":J1_0_0 :J1_1_0 :J1_1_1 :J1_1_2 :J1_22_0 :J1_5_0 :J1_6_0 :J1_6_1 :J1_6_2 :J1_23_0 :J1_24_0 :J1_11_0 :J1_12_0 :J1_12_1 :J1_12_2 :J1_25_0 :J1_26_0 :J1_17_0 :J1_18_0 :J1_18_1 :J1_18_2 :J1_27_0" shape="1690.08,115.29 1709.28,115.31 1709.74,113.08 1710.31,112.29 1711.12,111.73 1712.15,111.39 1713.41,111.27 1713.30,92.07 1711.08,91.64 1710.30,91.09 1709.75,90.31 1709.41,89.32 1709.30,88.09 1690.10,88.07 1689.66,90.30 1689.10,91.08 1688.32,91.64 1687.32,91.97 1686.10,92.07 1685.99,111.27 1688.26,111.73 1689.06,112.29 1689.63,113.07 1689.97,114.07">
        <request index="0"  response="0000000000000000000000" foes="0000000000000111000000" cont="0"/>
        <request index="1"  response="1000000000011000000000" foes="1111111000011111000000" cont="0"/>
        <request index="2"  response="1000000000011000000000" foes="1111111000011111000000" cont="0"/>
        <request index="3"  response="1000000000011000000000" foes="1111111000011111000000" cont="0"/>
        <request index="4"  response="1000000111011000000000" foes="1111000111011111000000" cont="1"/>
        <request index="5"  response="0000000111000000000000" foes="0000000111000000000000" cont="0"/>
        <request index="6"  response="0000011111000000011111" foes="1000011111000000011111" cont="0"/>