<?xml version="1.0" encoding="UTF-8"?>

<!-- generated on 2024-01-08 02:38:33 by Eclipse SUMO netedit Version 1.19.0
-->

<additional xmlns:xsi="http://www.w3.org/2001/XMLSchema-instance" xsi:noNamespaceSchemaLocation="http://sumo.dlr.de/xsd/additional_file.xsd">
    <!-- Other additionals -->
    <rerouter id="rr_0" edges="E16" pos="-292.43,-1226.35">
        <interval begin="0.00" end="18000.00">
            <destProbReroute id="E44.40" probability="0.33"/>
            <destProbReroute id="E13.40" probability="0.33"/>
            <destProbReroute id="E12.39" probability="0.34"/>
        </interval>
        <interval begin="39600.00" end="57600.00">
            <destProbReroute id="E44.40" probability="0.33"/>
            <destProbReroute id="E13.40" probability="0.33"/>
            <destProbReroute id="E12.39" probability="0.34"/>
        </interval>
        <interval begin="75600.00" end="104400.00">
            <destProbReroute id="E44.40" probability="0.33"/>
            <destProbReroute id="E13.40" probability="0.33"/>
            <destProbReroute id="E12.39" probability="0.34"/>
        </interval>
        <interval begin="126000.00" end="144000.00">
            <destProbReroute id="E44.40" probability="0.33"/>
            <destProbReroute id="E13.40" probability="0.33"/>
            <destProbReroute id="E12.39" probability="0.34"/>
        </interval>
        <interval begin="162000.00" end="190800.00">
            <destProbReroute id="E44.40" probability="0.33"/>
            <destProbReroute id="E13.40" probability="0.33"/>
            <destProbReroute id="E12.39" probability="0.34"/>
        </interval>
        <interval begin="212400.00" end="230400.00">
            <destProbReroute id="E44.40" probability="0.33"/>
            <destProbReroute id="E13.40" probability="0.33"/>
            <destProbReroute id="E12.39" probability="0.34"/>
        </interval>
        <interval begin="248400.00" end="277200.00">
            <destProbReroute id="E44.40" probability="0.33"/>
            <destProbReroute id="E13.40" probability="0.33"/>
            <destProbReroute id="E12.39" probability="0.34"/>
        </interval>
        <interval begin="298800.00" end="316800.00">
            <destProbReroute id="E44.40" probability="0.33"/>
            <destProbReroute id="E13.40" probability="0.33"/>
            <destProbReroute id="E12.39" probability="0.34"/>
        </interval>
        <interval begin="334800.00" end="363600.00">
            <destProbReroute id="E44.40" probability="0.33"/>
            <destProbReroute id="E13.40" probability="0.33"/>
            <destProbReroute id="E12.39" probability="0.34"/>
        </interval>
        <interval begin="385200.00" end="403200.00">
            <destProbReroute id="E44.40" probability="0.33"/>
            <destProbReroute id="E13.40" probability="0.33"/>
            <destProbReroute id="E12.39" probability="0.34"/>
        </interval>
        <interval begin="421200.00" end="432000.00">
            <destProbReroute id="E44.40" probability="0.33"/>
            <destProbReroute id="E13.40" probability="0.33"/>
            <destProbReroute id="E12.39" probability="0.34"/>
        </interval>
        <interval begin="18000.00" end="39600.00">
            <destProbReroute id="E44.40" probability="0.17"/>
            <destProbReroute id="E13.40" probability="0.19"/>
            <destProbReroute id="E12.39" probability="0.64"/>
        </interval>
        <interval begin="104400.00" end="126000.00">
            <destProbReroute id="E44.40" probability="0.17"/>
            <destProbReroute id="E13.40" probability="0.19"/>
            <destProbReroute id="E12.39" probability="0.64"/>
        </interval>
        <interval begin="190800.00" end="212400.00">
            <destProbReroute id="E44.40" probability="0.17"/>
            <destProbReroute id="E13.40" probability="0.19"/>
            <destProbReroute id="E12.39" probability="0.64"/>
        </interval>
        <interval begin="277200.00" end="298800.00">
            <destProbReroute id="E44.40" probability="0.17"/>
            <destProbReroute id="E13.40" probability="0.19"/>
            <destProbReroute id="E12.39" probability="0.64"/>
        </interval>
        <interval begin="363600.00" end="385200.00">
            <destProbReroute id="E44.40" probability="0.17"/>
            <destProbReroute id="E13.40" probability="0.19"/>
            <destProbReroute id="E12.39" probability="0.64"/>
        </interval>
        <interval begin="57600.00" end="75600.00">
            <destProbReroute id="E44.40" probability="0.09"/>
            <destProbReroute id="E13.40" probability="0.19"/>
            <destProbReroute id="E12.39" probability="0.72"/>
        </interval>
        <interval begin="144000.00" end="162000.00">
            <destProbReroute id="E44.40" probability="0.09"/>
            <destProbReroute id="E13.40" probability="0.19"/>
            <destProbReroute id="E12.39" probability="0.72"/>
        </interval>
        <interval begin="230400.00" end="248400.00">
            <destProbReroute id="E44.40" probability="0.09"/>
            <destProbReroute id="E13.40" probability="0.19"/>
            <destProbReroute id="E12.39" probability="0.72"/>
        </interval>
        <interval begin="316800.00" end="334800.00">
            <destProbReroute id="E44.40" probability="0.09"/>
            <destProbReroute id="E13.40" probability="0.19"/>
            <destProbReroute id="E12.39" probability="0.72"/>
        </interval>
        <interval begin="403200.00" end="421200.00">
            <destProbReroute id="E44.40" probability="0.09"/>
            <destProbReroute id="E13.40" probability="0.19"/>
            <destProbReroute id="E12.39" probability="0.72"/>
        </interval>
    </rerouter>
    <rerouter id="rr_1" edges="E7" pos="-323.31,-1330.26">
        <interval begin="0.00" end="18000.00">
            <destProbReroute id="E13.40" probability="0.33"/>
            <destProbReroute id="E45.60" probability="0.33"/>
            <destProbReroute id="E12.39" probability="0.34"/>
        </interval>
        <interval begin="39600.00" end="57600.00">
            <destProbReroute id="E13.40" probability="0.33"/>
            <destProbReroute id="E45.60" probability="0.33"/>
            <destProbReroute id="E12.39" probability="0.34"/>
        </interval>
        <interval begin="75600.00" end="104400.00">
            <destProbReroute id="E13.40" probability="0.33"/>
            <destProbReroute id="E45.60" probability="0.33"/>
            <destProbReroute id="E12.39" probability="0.34"/>
        </interval>
        <interval begin="126000.00" end="144000.00">
            <destProbReroute id="E13.40" probability="0.33"/>
            <destProbReroute id="E45.60" probability="0.33"/>
            <destProbReroute id="E12.39" probability="0.34"/>
        </interval>
        <interval begin="162000.00" end="190800.00">
            <destProbReroute id="E13.40" probability="0.33"/>
            <destProbReroute id="E45.60" probability="0.33"/>
            <destProbReroute id="E12.39" probability="0.34"/>
        </interval>
        <interval begin="212400.00" end="230400.00">
            <destProbReroute id="E13.40" probability="0.33"/>
            <destProbReroute id="E45.60" probability="0.33"/>
            <destProbReroute id="E12.39" probability="0.34"/>
        </interval>
        <interval begin="248400.00" end="277200.00">
            <destProbReroute id="E13.40" probability="0.33"/>
            <destProbReroute id="E45.60" probability="0.33"/>
            <destProbReroute id="E12.39" probability="0.34"/>
        </interval>
        <interval begin="298800.00" end="316800.00">
            <destProbReroute id="E13.40" probability="0.33"/>
            <destProbReroute id="E45.60" probability="0.33"/>
            <destProbReroute id="E12.39" probability="0.34"/>
        </interval>
        <interval begin="334800.00" end="363600.00">
            <destProbReroute id="E13.40" probability="0.33"/>
            <destProbReroute id="E45.60" probability="0.33"/>
            <destProbReroute id="E12.39" probability="0.34"/>
        </interval>
        <interval begin="385200.00" end="403200.00">
            <destProbReroute id="E13.40" probability="0.33"/>
            <destProbReroute id="E45.60" probability="0.33"/>
            <destProbReroute id="E12.39" probability="0.34"/>
        </interval>
        <interval begin="421200.00" end="432000.00">
            <destProbReroute id="E13.40" probability="0.33"/>
            <destProbReroute id="E45.60" probability="0.33"/>
            <destProbReroute id="E12.39" probability="0.34"/>
        </interval>
        <interval begin="18000.00" end="39600.00">
            <destProbReroute id="E13.40" probability="0.63"/>
            <destProbReroute id="E45.60" probability="0.28"/>
            <destProbReroute id="E12.39" probability="0.09"/>
        </interval>
        <interval begin="104400.00" end="126000.00">
            <destProbReroute id="E13.40" probability="0.63"/>
            <destProbReroute id="E45.60" probability="0.28"/>
            <destProbReroute id="E12.39" probability="0.09"/>
        </interval>
        <interval begin="190800.00" end="212400.00">
            <destProbReroute id="E13.40" probability="0.63"/>
            <destProbReroute id="E45.60" probability="0.28"/>
            <destProbReroute id="E12.39" probability="0.09"/>
        </interval>
        <interval begin="277200.00" end="298800.00">
            <destProbReroute id="E13.40" probability="0.63"/>
            <destProbReroute id="E45.60" probability="0.28"/>
            <destProbReroute id="E12.39" probability="0.09"/>
        </interval>
        <interval begin="363600.00" end="385200.00">
            <destProbReroute id="E13.40" probability="0.63"/>
            <destProbReroute id="E45.60" probability="0.28"/>
            <destProbReroute id="E12.39" probability="0.09"/>
        </interval>
        <interval begin="57600.00" end="75600.00">
            <destProbReroute id="E13.40" probability="0.69"/>
            <destProbReroute id="E45.60" probability="0.21"/>
            <destProbReroute id="E12.39" probability="0.10"/>
        </interval>
        <interval begin="144000.00" end="162000.00">
            <destProbReroute id="E13.40" probability="0.69"/>
            <destProbReroute id="E45.60" probability="0.21"/>
            <destProbReroute id="E12.39" probability="0.10"/>
        </interval>
        <interval begin="230400.00" end="248400.00">
            <destProbReroute id="E13.40" probability="0.69"/>
            <destProbReroute id="E45.60" probability="0.21"/>
            <destProbReroute id="E12.39" probability="0.10"/>
        </interval>
        <interval begin="316800.00" end="334800.00">
            <destProbReroute id="E13.40" probability="0.69"/>
            <destProbReroute id="E45.60" probability="0.21"/>
            <destProbReroute id="E12.39" probability="0.10"/>
        </interval>
        <interval begin="403200.00" end="421200.00">
            <destProbReroute id="E13.40" probability="0.69"/>
            <destProbReroute id="E45.60" probability="0.21"/>
            <destProbReroute id="E12.39" probability="0.10"/>
        </interval>
    </rerouter>
    <rerouter id="rr_10" edges="-E33" pos="-300.06,-306.32">
        <interval begin="0.00" end="18000.00">
            <destProbReroute id="E35.61" probability="0.33"/>
            <destProbReroute id="E26" probability="0.33"/>
            <destProbReroute id="E34" probability="0.34"/>
        </interval>
        <interval begin="39600.00" end="57600.00">
            <destProbReroute id="E35.61" probability="0.33"/>
            <destProbReroute id="E26" probability="0.33"/>
            <destProbReroute id="E34" probability="0.34"/>
        </interval>
        <interval begin="75600.00" end="104400.00">
            <destProbReroute id="E35.61" probability="0.33"/>
            <destProbReroute id="E26" probability="0.33"/>
            <destProbReroute id="E34" probability="0.34"/>
        </interval>
        <interval begin="126000.00" end="144000.00">
            <destProbReroute id="E35.61" probability="0.33"/>
            <destProbReroute id="E26" probability="0.33"/>
            <destProbReroute id="E34" probability="0.34"/>
        </interval>
        <interval begin="162000.00" end="190800.00">
            <destProbReroute id="E35.61" probability="0.33"/>
            <destProbReroute id="E26" probability="0.33"/>
            <destProbReroute id="E34" probability="0.34"/>
        </interval>
        <interval begin="212400.00" end="230400.00">
            <destProbReroute id="E35.61" probability="0.33"/>
            <destProbReroute id="E26" probability="0.33"/>
            <destProbReroute id="E34" probability="0.34"/>
        </interval>
        <interval begin="248400.00" end="277200.00">
            <destProbReroute id="E35.61" probability="0.33"/>
            <destProbReroute id="E26" probability="0.33"/>
            <destProbReroute id="E34" probability="0.34"/>
        </interval>
        <interval begin="298800.00" end="316800.00">
            <destProbReroute id="E35.61" probability="0.33"/>
            <destProbReroute id="E26" probability="0.33"/>
            <destProbReroute id="E34" probability="0.34"/>
        </interval>
        <interval begin="334800.00" end="363600.00">
            <destProbReroute id="E35.61" probability="0.33"/>
            <destProbReroute id="E26" probability="0.33"/>
            <destProbReroute id="E34" probability="0.34"/>
        </interval>
        <interval begin="385200.00" end="403200.00">
            <destProbReroute id="E35.61" probability="0.33"/>
            <destProbReroute id="E26" probability="0.33"/>
            <destProbReroute id="E34" probability="0.34"/>
        </interval>
        <interval begin="421200.00" end="432000.00">
            <destProbReroute id="E35.61" probability="0.33"/>
            <destProbReroute id="E26" probability="0.33"/>
            <destProbReroute id="E34" probability="0.34"/>
        </interval>
        <interval begin="18000.00" end="39600.00">
            <destProbReroute id="E35.61" probability="0.20"/>
            <destProbReroute id="E26" probability="0.20"/>
            <destProbReroute id="E34" probability="0.60"/>
        </interval>
        <interval begin="104400.00" end="126000.00">
            <destProbReroute id="E35.61" probability="0.20"/>
            <destProbReroute id="E26" probability="0.20"/>
            <destProbReroute id="E34" probability="0.60"/>
        </interval>
        <interval begin="190800.00" end="212400.00">
            <destProbReroute id="E35.61" probability="0.20"/>
            <destProbReroute id="E26" probability="0.20"/>
            <destProbReroute id="E34" probability="0.60"/>
        </interval>
        <interval begin="277200.00" end="298800.00">
            <destProbReroute id="E35.61" probability="0.20"/>
            <destProbReroute id="E26" probability="0.20"/>
            <destProbReroute id="E34" probability="0.60"/>
        </interval>
        <interval begin="363600.00" end="385200.00">
            <destProbReroute id="E35.61" probability="0.20"/>
            <destProbReroute id="E26" probability="0.20"/>
            <destProbReroute id="E34" probability="0.60"/>
        </interval>
        <interval begin="57600.00" end="75600.00">
            <destProbReroute id="E35.61" probability="0.20"/>
            <destProbReroute id="E26" probability="0.30"/>
            <destProbReroute id="E34" probability="0.50"/>
        </interval>
        <interval begin="144000.00" end="162000.00">
            <destProbReroute id="E35.61" probability="0.20"/>
            <destProbReroute id="E26" probability="0.30"/>
            <destProbReroute id="E34" probability="0.50"/>
        </interval>
        <interval begin="230400.00" end="248400.00">
            <destProbReroute id="E35.61" probability="0.20"/>
            <destProbReroute id="E26" probability="0.30"/>
            <destProbReroute id="E34" probability="0.50"/>
        </interval>
        <interval begin="316800.00" end="334800.00">
            <destProbReroute id="E35.61" probability="0.20"/>
            <destProbReroute id="E26" probability="0.30"/>
            <destProbReroute id="E34" probability="0.50"/>
        </interval>
        <interval begin="403200.00" end="421200.00">
            <destProbReroute id="E35.61" probability="0.20"/>
            <destProbReroute id="E26" probability="0.30"/>
            <destProbReroute id="E34" probability="0.50"/>
        </interval>
    </rerouter>
    <rerouter id="rr_11" edges="E28" pos="-297.33,-290.95">
        <interval begin="0.00" end="18000.00">
            <destProbReroute id="E33" probability="0.40"/>
            <destProbReroute id="E34" probability="0.60"/>
        </interval>
        <interval begin="39600.00" end="57600.00">
            <destProbReroute id="E33" probability="0.40"/>
            <destProbReroute id="E34" probability="0.60"/>
        </interval>
        <interval begin="75600.00" end="104400.00">
            <destProbReroute id="E33" probability="0.40"/>
            <destProbReroute id="E34" probability="0.60"/>
        </interval>
        <interval begin="126000.00" end="144000.00">
            <destProbReroute id="E33" probability="0.40"/>
            <destProbReroute id="E34" probability="0.60"/>
        </interval>
        <interval begin="162000.00" end="190800.00">
            <destProbReroute id="E33" probability="0.40"/>
            <destProbReroute id="E34" probability="0.60"/>
        </interval>
        <interval begin="212400.00" end="230400.00">
            <destProbReroute id="E33" probability="0.40"/>
            <destProbReroute id="E34" probability="0.60"/>
        </interval>
        <interval begin="248400.00" end="277200.00">
            <destProbReroute id="E33" probability="0.40"/>
            <destProbReroute id="E34" probability="0.60"/>
        </interval>
        <interval begin="298800.00" end="316800.00">
            <destProbReroute id="E33" probability="0.40"/>
            <destProbReroute id="E34" probability="0.60"/>
        </interval>
        <interval begin="334800.00" end="363600.00">
            <destProbReroute id="E33" probability="0.40"/>
            <destProbReroute id="E34" probability="0.60"/>
        </interval>
        <interval begin="385200.00" end="403200.00">
            <destProbReroute id="E33" probability="0.40"/>
            <destProbReroute id="E34" probability="0.60"/>
        </interval>
        <interval begin="421200.00" end="432000.00">
            <destProbReroute id="E33" probability="0.40"/>
            <destProbReroute id="E34" probability="0.60"/>
        </interval>
        <interval begin="18000.00" end="39600.00">
            <destProbReroute id="E33" probability="0.18"/>
            <destProbReroute id="E34" probability="0.82"/>
        </interval>
        <interval begin="104400.00" end="126000.00">
            <destProbReroute id="E33" probability="0.18"/>
            <destProbReroute id="E34" probability="0.82"/>
        </interval>
        <interval begin="190800.00" end="212400.00">
            <destProbReroute id="E33" probability="0.18"/>
            <destProbReroute id="E34" probability="0.82"/>
        </interval>
        <interval begin="277200.00" end="298800.00">
            <destProbReroute id="E33" probability="0.18"/>
            <destProbReroute id="E34" probability="0.82"/>
        </interval>
        <interval begin="363600.00" end="385200.00">
            <destProbReroute id="E33" probability="0.18"/>
            <destProbReroute id="E34" probability="0.82"/>
        </interval>
        <interval begin="57600.00" end="75600.00">
            <destProbReroute id="E33" probability="0.20"/>
            <destProbReroute id="E34" probability="0.80"/>
        </interval>
        <interval begin="144000.00" end="162000.00">
            <destProbReroute id="E33" probability="0.20"/>
            <destProbReroute id="E34" probability="0.80"/>
        </interval>
        <interval begin="230400.00" end="248400.00">
            <destProbReroute id="E33" probability="0.20"/>
            <destProbReroute id="E34" probability="0.80"/>
        </interval>
        <interval begin="316800.00" end="334800.00">
            <destProbReroute id="E33" probability="0.20"/>
            <destProbReroute id="E34" probability="0.80"/>
        </interval>
        <interval begin="403200.00" end="421200.00">
            <destProbReroute id="E33" probability="0.20"/>
            <destProbReroute id="E34" probability="0.80"/>
        </interval>
    </rerouter>
    <rerouter id="rr_12" edges="-E26" pos="-251.50,-295.98">
        <interval begin="0.00" end="18000.00">
            <destProbReroute id="E35.61" probability="0.33"/>
            <destProbReroute id="E33" probability="0.33"/>
            <destProbReroute id="E34" probability="0.34"/>
        </interval>
        <interval begin="39600.00" end="57600.00">
            <destProbReroute id="E35.61" probability="0.33"/>
            <destProbReroute id="E33" probability="0.33"/>
            <destProbReroute id="E34" probability="0.34"/>
        </interval>
        <interval begin="75600.00" end="104400.00">
            <destProbReroute id="E35.61" probability="0.33"/>
            <destProbReroute id="E33" probability="0.33"/>
            <destProbReroute id="E34" probability="0.34"/>
        </interval>
        <interval begin="126000.00" end="144000.00">
            <destProbReroute id="E35.61" probability="0.33"/>
            <destProbReroute id="E33" probability="0.33"/>
            <destProbReroute id="E34" probability="0.34"/>
        </interval>
        <interval begin="162000.00" end="190800.00">
            <destProbReroute id="E35.61" probability="0.33"/>
            <destProbReroute id="E33" probability="0.33"/>
            <destProbReroute id="E34" probability="0.34"/>
        </interval>
        <interval begin="212400.00" end="230400.00">
            <destProbReroute id="E35.61" probability="0.33"/>
            <destProbReroute id="E33" probability="0.33"/>
            <destProbReroute id="E34" probability="0.34"/>
        </interval>
        <interval begin="248400.00" end="277200.00">
            <destProbReroute id="E35.61" probability="0.33"/>
            <destProbReroute id="E33" probability="0.33"/>
            <destProbReroute id="E34" probability="0.34"/>
        </interval>
        <interval begin="298800.00" end="316800.00">
            <destProbReroute id="E35.61" probability="0.33"/>
            <destProbReroute id="E33" probability="0.33"/>
            <destProbReroute id="E34" probability="0.34"/>
        </interval>
        <interval begin="334800.00" end="363600.00">
            <destProbReroute id="E35.61" probability="0.33"/>
            <destProbReroute id="E33" probability="0.33"/>
            <destProbReroute id="E34" probability="0.34"/>
        </interval>
        <interval begin="385200.00" end="403200.00">
            <destProbReroute id="E35.61" probability="0.33"/>
            <destProbReroute id="E33" probability="0.33"/>
            <destProbReroute id="E34" probability="0.34"/>
        </interval>
        <interval begin="421200.00" end="432000.00">
            <destProbReroute id="E35.61" probability="0.33"/>
            <destProbReroute id="E33" probability="0.33"/>
            <destProbReroute id="E34" probability="0.34"/>
        </interval>
        <interval begin="18000.00" end="39600.00">
            <destProbReroute id="E35.61" probability="0.60"/>
            <destProbReroute id="E33" probability="0.20"/>
            <destProbReroute id="E34" probability="0.20"/>
        </interval>
        <interval begin="104400.00" end="126000.00">
            <destProbReroute id="E35.61" probability="0.60"/>
            <destProbReroute id="E33" probability="0.20"/>
            <destProbReroute id="E34" probability="0.20"/>
        </interval>
        <interval begin="190800.00" end="212400.00">
            <destProbReroute id="E35.61" probability="0.60"/>
            <destProbReroute id="E33" probability="0.20"/>
            <destProbReroute id="E34" probability="0.20"/>
        </interval>
        <interval begin="277200.00" end="298800.00">
            <destProbReroute id="E35.61" probability="0.60"/>
            <destProbReroute id="E33" probability="0.20"/>
            <destProbReroute id="E34" probability="0.20"/>
        </interval>
        <interval begin="363600.00" end="385200.00">
            <destProbReroute id="E35.61" probability="0.60"/>
            <destProbReroute id="E33" probability="0.20"/>
            <destProbReroute id="E34" probability="0.20"/>
        </interval>
        <interval begin="57600.00" end="75600.00">
            <destProbReroute id="E35.61" probability="0.50"/>
            <destProbReroute id="E33" probability="0.30"/>
            <destProbReroute id="E34" probability="0.20"/>
        </interval>
        <interval begin="144000.00" end="162000.00">
            <destProbReroute id="E35.61" probability="0.50"/>
            <destProbReroute id="E33" probability="0.30"/>
            <destProbReroute id="E34" probability="0.20"/>
        </interval>
        <interval begin="230400.00" end="248400.00">
            <destProbReroute id="E35.61" probability="0.50"/>
            <destProbReroute id="E33" probability="0.30"/>
            <destProbReroute id="E34" probability="0.20"/>
        </interval>
        <interval begin="316800.00" end="334800.00">
            <destProbReroute id="E35.61" probability="0.50"/>
            <destProbReroute id="E33" probability="0.30"/>
            <destProbReroute id="E34" probability="0.20"/>
        </interval>
        <interval begin="403200.00" end="421200.00">
            <destProbReroute id="E35.61" probability="0.50"/>
            <destProbReroute id="E33" probability="0.30"/>
            <destProbReroute id="E34" probability="0.20"/>
        </interval>
    </rerouter>
    <rerouter id="rr_13" edges="-E34.13" pos="-260.55,-313.94">
        <interval begin="0.00" end="18000.00">
            <destProbReroute id="E26" probability="0.40"/>
            <destProbReroute id="E35.61" probability="0.60"/>
        </interval>
        <interval begin="39600.00" end="57600.00">
            <destProbReroute id="E26" probability="0.40"/>
            <destProbReroute id="E35.61" probability="0.60"/>
        </interval>
        <interval begin="75600.00" end="104400.00">
            <destProbReroute id="E26" probability="0.40"/>
            <destProbReroute id="E35.61" probability="0.60"/>
        </interval>
        <interval begin="126000.00" end="144000.00">
            <destProbReroute id="E26" probability="0.40"/>
            <destProbReroute id="E35.61" probability="0.60"/>
        </interval>
        <interval begin="162000.00" end="190800.00">
            <destProbReroute id="E26" probability="0.40"/>
            <destProbReroute id="E35.61" probability="0.60"/>
        </interval>
        <interval begin="212400.00" end="230400.00">
            <destProbReroute id="E26" probability="0.40"/>
            <destProbReroute id="E35.61" probability="0.60"/>
        </interval>
        <interval begin="248400.00" end="277200.00">
            <destProbReroute id="E26" probability="0.40"/>
            <destProbReroute id="E35.61" probability="0.60"/>
        </interval>
        <interval begin="298800.00" end="316800.00">
            <destProbReroute id="E26" probability="0.40"/>
            <destProbReroute id="E35.61" probability="0.60"/>
        </interval>
        <interval begin="334800.00" end="363600.00">
            <destProbReroute id="E26" probability="0.40"/>
            <destProbReroute id="E35.61" probability="0.60"/>
        </interval>
        <interval begin="385200.00" end="403200.00">
            <destProbReroute id="E26" probability="0.40"/>
            <destProbReroute id="E35.61" probability="0.60"/>
        </interval>
        <interval begin="421200.00" end="432000.00">
            <destProbReroute id="E26" probability="0.40"/>
            <destProbReroute id="E35.61" probability="0.60"/>
        </interval>
        <interval begin="18000.00" end="39600.00">
            <destProbReroute id="E26" probability="0.18"/>
            <destProbReroute id="E35.61" probability="0.82"/>
        </interval>
        <interval begin="104400.00" end="126000.00">
            <destProbReroute id="E26" probability="0.18"/>
            <destProbReroute id="E35.61" probability="0.82"/>
        </interval>
        <interval begin="190800.00" end="212400.00">
            <destProbReroute id="E26" probability="0.18"/>
            <destProbReroute id="E35.61" probability="0.82"/>
        </interval>
        <interval begin="277200.00" end="298800.00">
            <destProbReroute id="E26" probability="0.18"/>
            <destProbReroute id="E35.61" probability="0.82"/>
        </interval>
        <interval begin="363600.00" end="385200.00">
            <destProbReroute id="E26" probability="0.18"/>
            <destProbReroute id="E35.61" probability="0.82"/>
        </interval>
        <interval begin="57600.00" end="75600.00">
            <destProbReroute id="E26" probability="0.20"/>
            <destProbReroute id="E35.61" probability="0.80"/>
        </interval>
        <interval begin="144000.00" end="162000.00">
            <destProbReroute id="E26" probability="0.20"/>
            <destProbReroute id="E35.61" probability="0.80"/>
        </interval>
        <interval begin="230400.00" end="248400.00">
            <destProbReroute id="E26" probability="0.20"/>
            <destProbReroute id="E35.61" probability="0.80"/>
        </interval>
        <interval begin="316800.00" end="334800.00">
            <destProbReroute id="E26" probability="0.20"/>