<?xml version="1.0" encoding="UTF-8"?>

<!-- generated on 2024-01-08 23:50:57 by Eclipse SUMO netedit Version 1.19.0
-->

<routes xmlns:xsi="http://www.w3.org/2001/XMLSchema-instance" xsi:noNamespaceSchemaLocation="http://sumo.dlr.de/xsd/routes_file.xsd">
    <!-- Vehicles, persons and containers (sorted by depart) -->
<trip id="t_0" depart="0.00" from="E24" to="E27"/>
<trip id="t_1" depart="1.00" from="E35.61" to="E37"/>
<trip id="t_2" depart="2.00" from="E32" to="E31"/>
<trip id="t_3" depart="3.00" from="E30" to="E28"/>
<trip id="t_4" depart="4.00" from="E24" to="E27"/>
<trip id="t_5" depart="5.00" from="E35.61" to="E37"/>
<trip id="t_6" depart="6.00" from="E32" to="E31"/>
<trip id="t_7" depart="7.00" from="E30" to="E28"/>
<trip id="t_8" depart="8.00" from="E24" to="E27"/>
<trip id="t_9" depart="9.00" from="E35.61" to="E37"/>
<trip id="t_10" depart="10.00" from="E32" to="E31"/>
<trip id="t_11" depart="11.00" from="E30" to="E28"/>
<trip id="t_12" depart="12.00" from="E24" to="E27"/>
<trip id="t_13" depart="13.00" from="E35.61" to="E37"/>
<trip id="t_14" depart="14.00" from="E32" to="E31"/>
<trip id="t_15" depart="15.00" from="E30" to="E28"/>
<trip id="t_16" depart="16.00" from="E24" to="E27"/>
<trip id="t_17" depart="17.00" from="E35.61" to="E37"/>
<trip id="t_18" depart="18.00" from="E32" to="E31"/>
<trip id="t_19" depart="19.00" from="E30" to="E28"/>
<trip id="t_20" depart="20.00" from="E24" to="E27"/>
<trip id="t_21" depart="21.00" from="E35.61" to="E37"/>
<trip id="t_22" depart="22.00" from="E32" to="E31"/>
<trip id="t_23" depart="23.00" from="E30" to="E28"/>
<trip id="t_24" depart="24.00" from="E24" to="E27"/>
<trip id="t_25" depart="25.00" from="E35.61" to="E37"/>
<trip id="t_26" depart="26.00" from="E32" to="E31"/>
<trip id="t_27" depart="27.00" from="E30" to="E28"/>
<trip id="t_28" depart="28.00" from="E24" to="E27"/>
<trip id="t_29" depart="29.00" from="E35.61" to="E37"/>
<trip id="t_30" depart="30.00" from="E32" to="E31"/>
<trip id="t_31" depart="31.00" from="E30" to="E28"/>
<trip id="t_32" depart="32.00" from="E24" to="E27"/>
<trip id="t_33" depart="33.00" from="E35.61" to="E37"/>
<trip id="t_34" depart="34.00" from="E32" to="E31"/>
<trip id="t_35" depart="35.00" from="E30" to="E28"/>
<trip id="t_36" depart="36.00" from="E24" to="E27"/>
<trip id="t_37" depart="37.00" from="E35.61" to="E37"/>
<trip id="t_38" depart="38.00" from="E32" to="E31"/>
<trip id="t_39" depart="39.00" from="E30" to="E28"/>
<trip id="t_40" depart="40.00" from="E24" to="E27"/>
<trip id="t_41" depart="41.00" from="E35.61" to="E37"/>
<trip id="t_42" depart="42.00" from="E32" to="E31"/>
<trip id="t_43" depart="43.00" from="E30" to="E28"/>
<trip id="t_44" depart="44.00" from="E24" to="E27"/>
<trip id="t_45" depart="45.00" from="E35.61" to="E37"/>
<trip id="t_46" depart="46.00" from="E32" to="E31"/>
<trip id="t_47" depart="47.00" from="E30" to="E28"/>
<trip id="t_48" depart="48.00" from="E24" to="E27"/>
<trip id="t_49" depart="49.00" from="E35.61" to="E37"/>
<trip id="t_50" depart="50.00" from="E32" to="E31"/>
<trip id="t_51" depart="51.00" from="E30" to="E28"/>
<trip id="t_52" depart="52.00" from="E24" to="E27"/>
<trip id="t_53" depart="53.00" from="E35.61" to="E37"/>
<trip id="t_54" depart="54.00" from="E32" to="E31"/>
<trip id="t_55" depart="55.00" from="E30" to="E28"/>
<trip id="t_56" depart="56.00" from="E24" to="E27"/>
<trip id="t_57" depart="57.00" from="E35.61" to="E37"/>
<trip id="t_58" depart="58.00" from="E32" to="E31"/>
<trip id="t_59" depart="59.00" from="E30" to="E28"/>
<trip id="t_60" depart="60.00" from="E24" to="E27"/>
<trip id="t_61" depart="61.00" from="E35.61" to="E37"/>
<trip id="t_62" depart="62.00" from="E32" to="E31"/>
<trip id="t_63" depart="63.00" from="E30" to="E28"/>
<trip id="t_64" depart="64.00" from="E24" to="E27"/>
<trip id="t_65" depart="65.00" from="E35.61" to="E37"/>
<trip id="t_66" depart="66.00" from="E32" to="E31"/>
<trip id="t_67" depart="67.00" from="E30" to="E28"/>
<trip id="t_68" depart="68.00" from="E24" to="E27"/>
<trip id="t_69" depart="69.00" from="E35.61" to="E37"/>
<trip id="t_70" depart="70.00" from="E32" to="E31"/>
<trip id="t_71" depart="71.00" from="E30" to="E28"/>
<trip id="t_72" depart="72.00" from="E24" to="E27"/>
<trip id="t_73" depart="73.00" from="E35.61" to="E37"/>
<trip id="t_74" depart="74.00" from="E32" to="E31"/>
<trip id="t_75" depart="75.00" from="E30" to="E28"/>
<trip id="t_76" depart="76.00" from="E24" to="E27"/>
<trip id="t_77" depart="77.00" from="E35.61" to="E37"/>
<trip id="t_78" depart="78.00" from="E32" to="E31"/>
<trip id="t_79" depart="79.00" from="E30" to="E28"/>
<trip id="t_80" depart="80.00" from="E24" to="E27"/>
<trip id="t_81" depart="81.00" from="E35.61" to="E37"/>
<trip id="t_82" depart="82.00" from="E32" to="E31"/>
<trip id="t_83" depart="83.00" from="E30" to="E28"/>
<trip id="t_84" depart="84.00" from="E24" to="E27"/>
<trip id="t_85" depart="85.00" from="E35.61" to="E37"/>
<trip id="t_86" depart="86.00" from="E32" to="E31"/>
<trip id="t_87" depart="87.00" from="E30" to="E28"/>
<trip id="t_88" depart="88.00" from="E24" to="E27"/>
<trip id="t_89" depart="89.00" from="E35.61" to="E37"/>
<trip id="t_90" depart="90.00" from="E32" to="E31"/>
<trip id="t_91" depart="91.00" from="E30" to="E28"/>
<trip id="t_92" depart="92.00" from="E24" to="E27"/>
<trip id="t_93" depart="93.00" from="E35.61" to="E37"/>
<trip id="t_94" depart="94.00" from="E32" to="E31"/>
<trip id="t_95" depart="95.00" from="E30" to="E28"/>
<trip id="t_96" depart="96.00" from="E24" to="E27"/>
<trip id="t_97" depart="97.00" from="E35.61" to="E37"/>
<trip id="t_98" depart="98.00" from="E32" to="E31"/>
<trip id="t_99" depart="99.00" from="E30" to="E28"/>
<trip id="t_100" depart="100.00" from="E24" to="E27"/>
<trip id="t_101" depart="101.00" from="E35.61" to="E37"/>
<trip id="t_102" depart="102.00" from="E32" to="E31"/>
<trip id="t_103" depart="103.00" from="E30" to="E28"/>
<trip id="t_104" depart="104.00" from="E24" to="E27"/>
<trip id="t_105" depart="105.00" from="E35.61" to="E37"/>
<trip id="t_106" depart="106.00" from="E32" to="E31"/>
<trip id="t_107" depart="107.00" from="E30" to="E28"/>
<trip id="t_108" depart="108.00" from="E24" to="E27"/>
<trip id="t_109" depart="109.00" from="E35.61" to="E37"/>
<trip id="t_110" depart="110.00" from="E32" to="E31"/>
<trip id="t_111" depart="111.00" from="E30" to="E28"/>
<trip id="t_112" depart="112.00" from="E24" to="E27"/>
<trip id="t_113" depart="113.00" from="E35.61" to="E37"/>
<trip id="t_114" depart="114.00" from="E32" to="E31"/>
<trip id="t_115" depart="115.00" from="E30" to="E28"/>
<trip id="t_116" depart="116.00" from="E24" to="E27"/>
<trip id="t_117" depart="117.00" from="E35.61" to="E37"/>
<trip id="t_118" depart="118.00" from="E32" to="E31"/>
<trip id="t_119" depart="119.00" from="E30" to="E28"/>
<trip id="t_120" depart="120.00" from="E24" to="E27"/>
<trip id="t_121" depart="121.00" from="E35.61" to="E37"/>
<trip id="t_122" depart="122.00" from="E32" to="E31"/>
<trip id="t_123" depart="123.00" from="E30" to="E28"/>
<trip id="t_124" depart="124.00" from="E24" to="E27"/>
<trip id="t_125" depart="125.00" from="E35.61" to="E37"/>
<trip id="t_126" depart="126.00" from="E32" to="E31"/>
<trip id="t_127" depart="127.00" from="E30" to="E28"/>
<trip id="t_128" depart="128.00" from="E24" to="E27"/>
<trip id="t_129" depart="129.00" from="E35.61" to="E37"/>
<trip id="t_130" depart="130.00" from="E32" to="E31"/>
<trip id="t_131" depart="131.00" from="E30" to="E28"/>
<trip id="t_132" depart="132.00" from="E24" to="E27"/>
<trip id="t_133" depart="133.00" from="E35.61" to="E37"/>
<trip id="t_134" depart="134.00" from="E32" to="E31"/>
<trip id="t_135" depart="135.00" from="E30" to="E28"/>
<trip id="t_136" depart="136.00" from="E24" to="E27"/>
<trip id="t_137" depart="137.00" from="E35.61" to="E37"/>
<trip id="t_138" depart="138.00" from="E32" to="E31"/>
<trip id="t_139" depart="139.00" from="E30" to="E28"/>
<trip id="t_140" depart="140.00" from="E24" to="E27"/>
<trip id="t_141" depart="141.00" from="E35.61" to="E37"/>
<trip id="t_142" depart="142.00" from="E32" to="E31"/>
<trip id="t_143" depart="143.00" from="E30" to="E28"/>
<trip id="t_144" depart="144.00" from="E24" to="E27"/>
<trip id="t_145" depart="145.00" from="E35.61" to="E37"/>
<trip id="t_146" depart="146.00" from="E32" to="E31"/>
<trip id="t_147" depart="147.00" from="E30" to="E28"/>
<trip id="t_148" depart="148.00" from="E24" to="E27"/>
<trip id="t_149" depart="149.00" from="E35.61" to="E37"/>
<trip id="t_150" depart="150.00" from="E32" to="E31"/>
<trip id="t_151" depart="151.00" from="E30" to="E28"/>
<trip id="t_152" depart="152.00" from="E24" to="E27"/>
<trip id="t_153" depart="153.00" from="E35.61" to="E37"/>
<trip id="t_154" depart="154.00" from="E32" to="E31"/>
<trip id="t_155" depart="155.00" from="E30" to="E28"/>
<trip id="t_156" depart="156.00" from="E24" to="E27"/>
<trip id="t_157" depart="157.00" from="E35.61" to="E37"/>
<trip id="t_158" depart="158.00" from="E32" to="E31"/>
<trip id="t_159" depart="159.00" from="E30" to="E28"/>
<trip id="t_160" depart="160.00" from="E24" to="E27"/>
<trip id="t_161" depart="161.00" from="E35.61" to="E37"/>
<trip id="t_162" depart="162.00" from="E32" to="E31"/>
<trip id="t_163" depart="163.00" from="E30" to="E28"/>
<trip id="t_164" depart="164.00" from="E24" to="E27"/>
<trip id="t_165" depart="165.00" from="E35.61" to="E37"/>
<trip id="t_166" depart="166.00" from="E32" to="E31"/>
<trip id="t_167" depart="167.00" from="E30" to="E28"/>
<trip id="t_168" depart="168.00" from="E24" to="E27"/>
<trip id="t_169" depart="169.00" from="E35.61" to="E37"/>
<trip id="t_170" depart="170.00" from="E32" to="E31"/>
<trip id="t_171" depart="171.00" from="E30" to="E28"/>
<trip id="t_172" depart="172.00" from="E24" to="E27"/>
<trip id="t_173" depart="173.00" from="E35.61" to="E37"/>
<trip id="t_174" depart="174.00" from="E32" to="E31"/>
<trip id="t_175" depart="175.00" from="E30" to="E28"/>
<trip id="t_176" depart="176.00" from="E24" to="E27"/>
<trip id="t_177" depart="177.00" from="E35.61" to="E37"/>
<trip id="t_178" depart="178.00" from="E32" to="E31"/>
<trip id="t_179" depart="179.00" from="E30" to="E28"/>
<trip id="t_180" depart="180.00" from="E24" to="E27"/>
<trip id="t_181" depart="181.00" from="E35.61" to="E37"/>
<trip id="t_182" depart="182.00" from="E32" to="E31"/>
<trip id="t_183" depart="183.00" from="E30" to="E28"/>
<trip id="t_184" depart="184.00" from="E24" to="E27"/>
<trip id="t_185" depart="185.00" from="E35.61" to="E37"/>
<trip id="t_186" depart="186.00" from="E32" to="E31"/>
<trip id="t_187" depart="187.00" from="E30" to="E28"/>
<trip id="t_188" depart="188.00" from="E24" to="E27"/>
<trip id="t_189" depart="189.00" from="E35.61" to="E37"/>
<trip id="t_190" depart="190.00" from="E32" to="E31"/>
<trip id="t_191" depart="191.00" from="E30" to="E28"/>
<trip id="t_192" depart="192.00" from="E24" to="E27"/>
<trip id="t_193" depart="193.00" from="E35.61" to="E37"/>
<trip id="t_194" depart="194.00" from="E32" to="E31"/>
<trip id="t_195" depart="195.00" from="E30" to="E28"/>
<trip id="t_196" depart="196.00" from="E24" to="E27"/>
<trip id="t_197" depart="197.00" from="E35.61" to="E37"/>
<trip id="t_198" depart="198.00" from="E32" to="E31"/>
<trip id="t_199" depart="199.00" from="E30" to="E28"/>
<trip id="t_200" depart="200.00" from="E24" to="E27"/>
<trip id="t_201" depart="201.00" from="E35.61" to="E37"/>
<trip id="t_202" depart="202.00" from="E32" to="E31"/>
<trip id="t_203" depart="203.00" from="E30" to="E28"/>
<trip id="t_204" depart="204.00" from="E24" to="E27"/>
<trip id="t_205" depart="205.00" from="E35.61" to="E37"/>
<trip id="t_206" depart="206.00" from="E32" to="E31"/>
<trip id="t_207" depart="207.00" from="E30" to="E28"/>
<trip id="t_208" depart="208.00" from="E24" to="E27"/>
<trip id="t_209" depart="209.00" from="E35.61" to="E37"/>
<trip id="t_210" depart="210.00" from="E32" to="E31"/>
<trip id="t_211" depart="211.00" from="E30" to="E28"/>
<trip id="t_212" depart="212.00" from="E24" to="E27"/>
<trip id="t_213" depart="213.00" from="E35.61" to="E37"/>
<trip id="t_214" depart="214.00" from="E32" to="E31"/>
<trip id="t_215" depart="215.00" from="E30" to="E28"/>
<trip id="t_216" depart="216.00" from="E24" to="E27"/>
<trip id="t_217" depart="217.00" from="E35.61" to="E37"/>
<trip id="t_218" depart="218.00" from="E32" to="E31"/>
<trip id="t_219" depart="219.00" from="E30" to="E28"/>
<trip id="t_220" depart="220.00" from="E24" to="E27"/>
<trip id="t_221" depart="221.00" from="E35.61" to="E37"/>
<trip id="t_222" depart="222.00" from="E32" to="E31"/>
<trip id="t_223" depart="223.00" from="E30" to="E28"/>
<trip id="t_224" depart="224.00" from="E24" to="E27"/>
<trip id="t_225" depart="225.00" from="E35.61" to="E37"/>
<trip id="t_226" depart="226.00" from="E32" to="E31"/>
<trip id="t_227" depart="227.00" from="E30" to="E28"/>
<trip id="t_228" depart="228.00" from="E24" to="E27"/>
<trip id="t_229" depart="229.00" from="E35.61" to="E37"/>
<trip id="t_230" depart="230.00" from="E32" to="E31"/>
<trip id="t_231" depart="231.00" from="E30" to="E28"/>
<trip id="t_232" depart="232.00" from="E24" to="E27"/>
<trip id="t_233" depart="233.00" from="E35.61" to="E37"/>
<trip id="t_234" depart="234.00" from="E32" to="E31"/>
<trip id="t_235" depart="235.00" from="E30" to="E28"/>
<trip id="t_236" depart="236.00" from="E24" to="E27"/>
<trip id="t_237" depart="237.00" from="E35.61" to="E37"/>
<trip id="t_238" depart="238.00" from="E32" to="E31"/>
<trip id="t_239" depart="239.00" from="E30" to="E28"/>
<trip id="t_240" depart="240.00" from="E24" to="E27"/>
<trip id="t_241" depart="241.00" from="E35.61" to="E37"/>
<trip id="t_242" depart="242.00" from="E32" to="E31"/>
<trip id="t_243" depart="243.00" from="E30" to="E28"/>
<trip id="t_244" depart="244.00" from="E24" to="E27"/>
<trip id="t_245" depart="245.00" from="E35.61" to="E37"/>
<trip id="t_246" depart="246.00" from="E32" to="E31"/>
<trip id="t_247" depart="247.00" from="E30" to="E28"/>
<trip id="t_248" depart="248.00" from="E24" to="E27"/>
<trip id="t_249" depart="249.00" from="E35.61" to="E37"/>
<trip id="t_250" depart="250.00" from="E32" to="E31"/>
<trip id="t_251" depart="251.00" from="E30" to="E28"/>
<trip id="t_252" depart="252.00" from="E24" to="E27"/>
<trip id="t_253" depart="253.00" from="E35.61" to="E37"/>
<trip id="t_254" depart="254.00" from="E32" to="E31"/>
<trip id="t_255" depart="255.00" from="E30" to="E28"/>
<trip id="t_256" depart="256.00" from="E24" to="E27"/>
<trip id="t_257" depart="257.00" from="E35.61" to="E37"/>
<trip id="t_258" depart="258.00" from="E32" to="E31"/>
<trip id="t_259" depart="259.00" from="E30" to="E28"/>
<trip id="t_260" depart="260.00" from="E24" to="E27"/>
<trip id="t_261" depart="261.00" from="E35.61" to="E37"/>
<trip id="t_262" depart="262.00" from="E32" to="E31"/>
<trip id="t_263" depart="263.00" from="E30" to="E28"/>
<trip id="t_264" depart="264.00" from="E24" to="E27"/>
<trip id="t_265" depart="265.00" from="E35.61" to="E37"/>
<trip id="t_266" depart="266.00" from="E32" to="E31"/>
<trip id="t_267" depart="267.00" from="E30" to="E28"/>
<trip id="t_268" depart="268.00" from="E24" to="E27"/>
<trip id="t_269" depart="269.00" from="E35.61" to="E37"/>
<trip id="t_270" depart="270.00" from="E32" to="E31"/>
<trip id="t_271" depart="271.00" from="E30" to="E28"/>
<trip id="t_272" depart="272.00" from="E24" to="E27"/>
<trip id="t_273" depart="273.00" from="E35.61" to="E37"/>
<trip id="t_274" depart="274.00" from="E32" to="E31"/>
<trip id="t_275" depart="275.00" from="E30" to="E28"/>
<trip id="t_276" depart="276.00" from="E24" to="E27"/>
<trip id="t_277" depart="277.00" from="E35.61" to="E37"/>
<trip id="t_278" depart="278.00" from="E32" to="E31"/>
<trip id="t_279" depart="279.00" from="E30" to="E28"/>
<trip id="t_280" depart="280.00" from="E24" to="E27"/>
<trip id="t_281" depart="281.00" from="E35.61" to="E37"/>
<trip id="t_282" depart="282.00" from="E32" to="E31"/>
<trip id="t_283" depart="283.00" from="E30" to="E28"/>
<trip id="t_284" depart="284.00" from="E24" to="E27"/>
<trip id="t_285" depart="285.00" from="E35.61" to="E37"/>
<trip id="t_286" depart="286.00" from="E32" to="E31"/>
<trip id="t_287" depart="287.00" from="E30" to="E28"/>
<trip id="t_288" depart="288.00" from="E24" to="E27"/>
<trip id="t_289" depart="289.00" from="E35.61" to="E37"/>
<trip id="t_290" depart="290.00" from="E32" to="E31"/>
<trip id="t_291" depart="291.00" from="E30" to="E28"/>
<trip id="t_292" depart="292.00" from="E24" to="E27"/>
<trip id="t_293" depart="293.00" from="E35.61" to="E37"/>
<trip id="t_294" depart="294.00" from="E32" to="E31"/>
<trip id="t_295" depart="295.00" from="E30" to="E28"/>
<trip id="t_296" depart="296.00" from="E24" to="E27"/>
<trip id="t_297" depart="297.00" from="E35.61" to="E37"/>
<trip id="t_298" depart="298.00" from="E32" to="E31"/>
<trip id="t_299" depart="299.00" from="E30" to="E28"/>
<trip id="t_300" depart="300.00" from="E24" to="E27"/>
<trip id="t_301" depart="301.00" from="E35.61" to="E37"/>
<trip id="t_302" depart="302.00" from="E32" to="E31"/>
<trip id="t_303" depart="303.00" from="E30" to="E28"/>
<trip id="t_304" depart="304.00" from="E24" to="E27"/>
<trip id="t_305" depart="305.00" from="E35.61" to="E37"/>
<trip id="t_306" depart="306.00" from="E32" to="E31"/>
<trip id="t_307" depart="307.00" from="E30" to="E28"/>
<trip id="t_308" depart="308.00" from="E24" to="E27"/>
<trip id="t_309" depart="309.00" from="E35.61" to="E37"/>
<trip id="t_310" depart="310.00" from="E32" to="E31"/>
<trip id="t_311" depart="311.00" from="E30" to="E28"/>
<trip id="t_312" depart="312.00" from="E24" to="E27"/>
<trip id="t_313" depart="313.00" from="E35.61" to="E37"/>
<trip id="t_314" depart="314.00" from="E32" to="E31"/>
<trip id="t_315" depart="315.00" from="E30" to="E28"/>
<trip id="t_316" depart="316.00" from="E24" to="E27"/>
<trip id="t_317" depart="317.00" from="E35.61" to="E37"/>
<trip id="t_318" depart="318.00" from="E32" to="E31"/>
<trip id="t_319" depart="319.00" from="E30" to="E28"/>
<trip id="t_320" depart="320.00" from="E24" to="E27"/>
<trip id="t_321" depart="321.00" from="E35.61" to="E37"/>
<trip id="t_322" depart="322.00" from="E32" to="E31"/>
<trip id="t_323" depart="323.00" from="E30" to="E28"/>
<trip id="t_324" depart="324.00" from="E24" to="E27"/>
<trip id="t_325" depart="325.00" from="E35.61" to="E37"/>
<trip id="t_326" depart="326.00" from="E32" to="E31"/>
<trip id="t_327" depart="327.00" from="E30" to="E28"/>
<trip id="t_328" depart="328.00" from="E24" to="E27"/>
<trip id="t_329" depart="329.00" from="E35.61" to="E37"/>
<trip id="t_330" depart="330.00" from="E32" to="E31"/>
<trip id="t_331" depart="331.00" from="E30" to="E28"/>
<trip id="t_332" depart="332.00" from="E24" to="E27"/>
<trip id="t_333" depart="333.00" from="E35.61" to="E37"/>
<trip id="t_334" depart="334.00" from="E32" to="E31"/>
<trip id="t_335" depart="335.00" from="E30" to="E28"/>
<trip id="t_336" depart="336.00" from="E24" to="E27"/>
<trip id="t_337" depart="337.00" from="E35.61" to="E37"/>
<trip id="t_338" depart="338.00" from="E32" to="E31"/>
<trip id="t_339" depart="339.00" from="E30" to="E28"/>
<trip id="t_340" depart="340.00" from="E24" to="E27"/>
<trip id="t_341" depart="341.00" from="E35.61" to="E37"/>
<trip id="t_342" depart="342.00" from="E32" to="E31"/>
<trip id="t_343" depart="343.00" from="E30" to="E28"/>
<trip id="t_344" depart="344.00" from="E24" to="E27"/>
<trip id="t_345" depart="345.00" from="E35.61" to="E37"/>
<trip id="t_346" depart="346.00" from="E32" to="E31"/>
<trip id="t_347" depart="347.00" from="E30" to="E28"/>
<trip id="t_348" depart="348.00" from="E24" to="E27"/>
<trip id="t_349" depart="349.00" from="E35.61" to="E37"/>
<trip id="t_350" depart="350.00" from="E32" to="E31"/>
<trip id="t_351" depart="351.00" from="E30" to="E28"/>
<trip id="t_352" depart="352.00" from="E24" to="E27"/>
<trip id="t_353" depart="353.00" from="E35.61" to="E37"/>
<trip id="t_354" depart="354.00" from="E32" to="E31"/>
<trip id="t_355" depart="355.00" from="E30" to="E28"/>
<trip id="t_356" depart="356.00" from="E24" to="E27"/>
<trip id="t_357" depart="357.00" from="E35.61" to="E37"/>
<trip id="t_358" depart="358.00" from="E32" to="E31"/>
<trip id="t_359" depart="359.00" from="E30" to="E28"/>
<trip id="t_360" depart="360.00" from="E24" to="E27"/>
<trip id="t_361" depart="361.00" from="E35.61" to="E37"/>
<trip id="t_362" depart="362.00" from="E32" to="E31"/>
<trip id="t_363" depart="363.00" from="E30" to="E28"/>
<trip id="t_364" depart="364.00" from="E24" to="E27"/>
<trip id="t_365" depart="365.00" from="E35.61" to="E37"/>
<trip id="t_366" depart="366.00" from="E32" to="E31"/>
<trip id="t_367" depart="367.00" from="E30" to="E28"/>
<trip id="t_368" depart="368.00" from="E24" to="E27"/>
<trip id="t_369" depart="369.00" from="E35.61" to="E37"/>
<trip id="t_370" depart="370.00" from="E32" to="E31"/>
<trip id="t_371" depart="371.00" from="E30" to="E28"/>
<trip id="t_372" depart="372.00" from="E24" to="E27"/>
<trip id="t_373" depart="373.00" from="E35.61" to="E37"/>
<trip id="t_374" depart="374.00" from="E32" to="E31"/>
<trip id="t_375" depart="375.00" from="E30" to="E28"/>
<trip id="t_376" depart="376.00" from="E24" to="E27"/>
<trip id="t_377" depart="377.00" from="E35.61" to="E37"/>
<trip id="t_378" depart="378.00" from="E32" to="E31"/>
<trip id="t_379" depart="379.00" from="E30" to="E28"/>
<trip id="t_380" depart="380.00" from="E24" to="E27"/>
<trip id="t_381" depart="381.00" from="E35.61" to="E37"/>
<trip id="t_382" depart="382.00" from="E32" to="E31"/>
<trip id="t_383" depart="383.00" from="E30" to="E28"/>
<trip id="t_384" depart="384.00" from="E24" to="E27"/>
<trip id="t_385" depart="385.00" from="E35.61" to="E37"/>
<trip id="t_386" depart="386.00" from="E32" to="E31"/>
<trip id="t_387" depart="387.00" from="E30" to="E28"/>
<trip id="t_388" depart="388.00" from="E24" to="E27"/>
<trip id="t_389" depart="389.00" from="E35.61" to="E37"/>
<trip id="t_390" depart="390.00" from="E32" to="E31"/>
<trip id="t_391" depart="391.00" from="E30" to="E28"/>
<trip id="t_392" depart="392.00" from="E24" to="E27"/>
<trip id="t_393" depart="393.00" from="E35.61" to="E37"/>
<trip id="t_394" depart="394.00" from="E32" to="E31"/>
<trip id="t_395" depart="395.00" from="E30" to="E28"/>
<trip id="t_396" depart="396.00" from="E24" to="E27"/>
<trip id="t_397" depart="397.00" from="E35.61" to="E37"/>
<trip id="t_398" depart="398.00" from="E32" to="E31"/>
<trip id="t_399" depart="399.00" from="E30" to="E28"/>
<trip id="t_400" depart="400.00" from="E24" to="E27"/>
<trip id="t_401" depart="401.00" from="E35.61" to="E37"/>
<trip id="t_402" depart="402.00" from="E32" to="E31"/>
<trip id="t_403" depart="403.00" from="E30" to="E28"/>
<trip id="t_404" depart="404.00" from="E24" to="E27"/>
<trip id="t_405" depart="405.00" from="E35.61" to="E37"/>
<trip id="t_406" depart="406.00" from="E32" to="E31"/>
<trip id="t_407" depart="407.00" from="E30" to="E28"/>
<trip id="t_408" depart="408.00" from="E24" to="E27"/>
<trip id="t_409" depart="409.00" from="E35.61" to="E37"/>
<trip id="t_410" depart="410.00" from="E32" to="E31"/>
<trip id="t_411" depart="411.00" from="E30" to="E28"/>
<trip id="t_412" depart="412.00" from="E24" to="E27"/>
<trip id="t_413" depart="413.00" from="E35.61" to="E37"/>
<trip id="t_414" depart="414.00" from="E32" to="E31"/>
<trip id="t_415" depart="415.00" from="E30" to="E28"/>
<trip id="t_416" depart="416.00" from="E24" to="E27"/>
<trip id="t_417" depart="417.00" from="E35.61" to="E37"/>
<trip id="t_418" depart="418.00" from="E32" to="E31"/>
<trip id="t_419" depart="419.00" from="E30" to="E28"/>
<trip id="t_420" depart="420.00" from="E24" to="E27"/>
<trip id="t_421" depart="421.00" from="E35.61" to="E37"/>
<trip id="t_422" depart="422.00" from="E32" to="E31"/>
<trip id="t_423" depart="423.00" from="E30" to="E28"/>
<trip id="t_424" depart="424.00" from="E24" to="E27"/>
<trip id="t_425" depart="425.00" from="E35.61" to="E37"/>
<trip id="t_426" depart="426.00" from="E32" to="E31"/>
<trip id="t_427" depart="427.00" from="E30" to="E28"/>
<trip id="t_428" depart="428.00" from="E24" to="E27"/>
<trip id="t_429" depart="429.00" from="E35.61" to="E37"/>
<trip id="t_430" depart="430.00" from="E32" to="E31"/>
<trip id="t_431" depart="431.00" from="E30" to="E28"/>
<trip id="t_432" depart="432.00" from="E24" to="E27"/>
<trip id="t_433" depart="433.00" from="E35.61" to="E37"/>
<trip id="t_434" depart="434.00" from="E32" to="E31"/>
<trip id="t_435" depart="435.00" from="E30" to="E28"/>
<trip id="t_436" depart="436.00" from="E24" to="E27"/>
<trip id="t_437" depart="437.00" from="E35.61" to="E37"/>
<trip id="t_438" depart="438.00" from="E32" to="E31"/>
<trip id="t_439" depart="439.00" from="E30" to="E28"/>
<trip id="t_440" depart="440.00" from="E24" to="E27"/>
<trip id="t_441" depart="441.00" from="E35.61" to="E37"/>
<trip id="t_442" depart="442.00" from="E32" to="E31"/>
<trip id="t_443" depart="443.00" from="E30" to="E28"/>
<trip id="t_444" depart="444.00" from="E24" to="E27"/>
<trip id="t_445" depart="445.00" from="E35.61" to="E37"/>
<trip id="t_446" depart="446.00" from="E32" to="E31"/>
<trip id="t_447" depart="447.00" from="E30" to="E28"/>
<trip id="t_448" depart="448.00" from="E24" to="E27"/>
<trip id="t_449" depart="449.00" from="E35.61" to="E37"/>
<trip id="t_450" depart="450.00" from="E32" to="E31"/>
<trip id="t_451" depart="451.00" from="E30" to="E28"/>
<trip id="t_452" depart="452.00" from="E24" to="E27"/>
<trip id="t_453" depart="453.00" from="E35.61" to="E37"/>
<trip id="t_454" depart="454.00" from="E32" to="E31"/>
<trip id="t_455" depart="455.00" from="E30" to="E28"/>
<trip id="t_456" depart="456.00" from="E24" to="E27"/>
<trip id="t_457" depart="457.00" from="E35.61" to="E37"/>
<trip id="t_458" depart="458.00" from="E32" to="E31"/>
<trip id="t_459" depart="459.00" from="E30" to="E28"/>
<trip id="t_460" depart="460.00" from="E24" to="E27"/>
<trip id="t_461" depart="461.00" from="E35.61" to="E37"/>
<trip id="t_462" depart="462.00" from="E32" to="E31"/>
<trip id="t_463" depart="463.00" from="E30" to="E28"/>
<trip id="t_464" depart="464.00" from="E24" to="E27"/>
<trip id="t_465" depart="465.00" from="E35.61" to="E37"/>
<trip id="t_466" depart="466.00" from="E32" to="E31"/>
<trip id="t_467" depart="467.00" from="E30" to="E28"/>
<trip id="t_468" depart="468.00" from="E24" to="E27"/>
<trip id="t_469" depart="469.00" from="E35.61" to="E37"/>
<trip id="t_470" depart="470.00" from="E32" to="E31"/>
<trip id="t_471" depart="471.00" from="E30" to="E28"/>
<trip id="t_472" depart="472.00" from="E24" to="E27"/>
<trip id="t_473" depart="473.00" from="E35.61" to="E37"/>
<trip id="t_474" depart="474.00" from="E32" to="E27"/>
<trip id="t_475" depart="475.00" from="E30" to="E37"/>
<trip id="t_476" depart="476.00" from="E24" to="E31"/>
<trip id="t_477" depart="477.00" from="E35.61" to="E28"/>
<trip id="t_478" depart="478.00" from="E32" to="E27"/>
<trip id="t_479" depart="479.00" from="E30" to="E37"/>
<trip id="t_480" depart="480.00" from="E24" to="E31"/>
<trip id="t_481" depart="481.00" from="E35.61" to="E28"/>
<trip id="t_482" depart="482.00" from="E32" to="E27"/>
<trip id="t_483" depart="483.00" from="E30" to="E37"/>
<trip id="t_484" depart="484.00" from="E24" to="E31"/>
<trip id="t_485" depart="485.00" from="E35.61" to="E28"/>
<trip id="t_486" depart="486.00" from="E32" to="E27"/>
<trip id="t_487" depart="487.00" from="E30" to="E37"/>
<trip id="t_488" depart="488.00" from="E24" to="E31"/>
<trip id="t_489" depart="489.00" from="E35.61" to="E28"/>
<trip id="t_490" depart="490.00" from="E32" to="E27"/>
<trip id="t_491" depart="491.00" from="E30" to="E37"/>
<trip id="t_492" depart="492.00" from="E24" to="E31"/>
<trip id="t_493" depart="493.00" from="E35.61" to="E28"/>
<trip id="t_494" depart="494.00" from="E32" to="E27"/>
<trip id="t_495" depart="495.00" from="E30" to="E37"/>
<trip id="t_496" depart="496.00" from="E24" to="E31"/>
<trip id="t_497" depart="497.00" from="E35.61" to="E28"/>
<trip id="t_498" depart="498.00" from="E32" to="E27"/>
<trip id="t_499" depart="499.00" from="E30" to="E37"/>
<trip id="t_500" depart="500.00" from="E24" to="E31"/>
<trip id="t_501" depart="501.00" from="E35.61" to="E28"/>
<trip id="t_502" depart="502.00" from="E32" to="E27"/>
<trip id="t_503" depart="503.00" from="E30" to="E37"/>
<trip id="t_504" depart="504.00" from="E24" to="E31"/>
<trip id="t_505" depart="505.00" from="E35.61" to="E28"/>
<trip id="t_506" depart="506.00" from="E32" to="E27"/>
<trip id="t_507" depart="507.00" from="E30" to="E37"/>
<trip id="t_508" depart="508.00" from="E24" to="E31"/>
<trip id="t_509" depart="509.00" from="E35.61" to="E28"/>
<trip id="t_510" depart="510.00" from="E32" to="E27"/>
<trip id="t_511" depart="511.00" from="E30" to="E37"/>
<trip id="t_512" depart="512.00" from="E24" to="E31"/>
<trip id="t_513" depart="513.00" from="E35.61" to="E28"/>
<trip id="t_514" depart="514.00" from="E32" to="E27"/>
<trip id="t_515" depart="515.00" from="E30" to="E37"/>
<trip id="t_516" depart="516.00" from="E24" to="E31"/>
<trip id="t_517" depart="517.00" from="E35.61" to="E28"/>
<trip id="t_518" depart="518.00" from="E32" to="E27"/>
<trip id="t_519" depart="519.00" from="E30" to="E37"/>
<trip id="t_520" depart="520.00" from="E24" to="E31"/>
<trip id="t_521" depart="521.00" from="E35.61" to="E28"/>
<trip id="t_522" depart="522.00" from="E32" to="E27"/>
<trip id="t_523" depart="523.00" from="E30" to="E37"/>
<trip id="t_524" depart="524.00" from="E24" to="E31"/>
<trip id="t_525" depart="525.00" from="E35.61" to="E28"/>
<trip id="t_526" depart="526.00" from="E32" to="E27"/>
<trip id="t_527" depart="527.00" from="E30" to="E37"/>
<trip id="t_528" depart="528.00" from="E24" to="E31"/>
<trip id="t_529" depart="529.00" from="E35.61" to="E28"/>
<trip id="t_530" depart="530.00" from="E32" to="E27"/>
<trip id="t_531" depart="531.00" from="E30" to="E37"/>
<trip id="t_532" depart="532.00" from="E24" to="E31"/>
<trip id="t_533" depart="533.00" from="E35.61" to="E28"/>
<trip id="t_534" depart="534.00" from="E32" to="E27"/>
<trip id="t_535" depart="535.00" from="E30" to="E37"/>