<?xml version="1.0" encoding="UTF-8"?>

<!-- generated on 2024-01-14 18:23:31 by Eclipse SUMO netedit Version 1.19.0
<configuration xmlns:xsi="http://www.w3.org/2001/XMLSchema-instance" xsi:noNamespaceSchemaLocation="http://sumo.dlr.de/xsd/neteditConfiguration.xsd">

    <input>
        <sumo-net-file value="nets/SUMO2/OTHER.net.xml"/>
    </input>

    <output>
        <output-file value="nets/SUMO2/OTHER.net.xml"/>
    </output>

    <processing>
        <geometry.min-radius.fix.railways value="false"/>
        <geometry.max-grade.fix value="false"/>
        <offset.disable-normalization value="true"/>
        <lefthand value="0"/>
    </processing>

    <junctions>
        <no-turnarounds value="true"/>
        <junctions.corner-detail value="5"/>
        <junctions.limit-turn-speed value="5.50"/>
        <rectangular-lane-cut value="0"/>
    </junctions>

    <pedestrian>
        <walkingareas value="0"/>
    </pedestrian>

</configuration>
-->

<net version="1.16" junctionCornerDetail="5" limitTurnSpeed="5.50" xmlns:xsi="http://www.w3.org/2001/XMLSchema-instance" xsi:noNamespaceSchemaLocation="http://sumo.dlr.de/xsd/net_file.xsd">

    <location netOffset="0.00,0.00" convBoundary="-460.14,-1418.17,-36.90,254.05" origBoundary="-10000000000.00,-10000000000.00,10000000000.00,10000000000.00" projParameter="!"/>

    <type id="edgeType_0" priority="-1" numLanes="3" speed="13.89"/>
    <type id="edgeType_1"/>

    <edge id=":J2_0" function="internal">
        <lane id=":J2_0_0" index="0" speed="6.97" length="10.83" shape="-242.80,-976.69 -246.24,-976.60 -248.72,-975.72 -250.25,-974.06 -250.82,-971.62"/>
    </edge>
    <edge id=":J2_1" function="internal">
        <lane id=":J2_1_0" index="0" speed="13.89" length="49.06" shape="-242.80,-976.69 -253.93,-977.75 -269.08,-979.33 -283.29,-980.73 -291.62,-981.26"/>
        <lane id=":J2_1_1" index="1" speed="13.89" length="49.06" shape="-242.56,-979.89 -253.73,-980.44 -268.96,-980.92 -283.25,-981.23 -291.62,-981.26"/>
    </edge>
    <edge id=":J2_3" function="internal">
        <lane id=":J2_3_0" index="0" speed="13.12" length="10.62" shape="-242.56,-979.89 -253.11,-981.11"/>
    </edge>
    <edge id=":J2_16" function="internal">
        <lane id=":J2_16_0" index="0" speed="13.12" length="26.79" shape="-253.11,-981.11 -257.15,-981.58 -267.58,-984.16 -273.85,-987.62 -275.96,-991.96"/>
    </edge>
    <edge id=":J2_4" function="internal">
        <lane id=":J2_4_0" index="0" speed="6.52" length="8.95" shape="-247.33,-992.15 -247.11,-989.73 -246.17,-987.95 -244.49,-986.79 -242.08,-986.27"/>
    </edge>
    <edge id=":J2_5" function="internal">
        <lane id=":J2_5_0" index="0" speed="13.89" length="20.74" shape="-247.33,-992.15 -248.07,-986.02 -249.16,-981.89 -250.21,-977.76 -250.82,-971.62"/>
        <lane id=":J2_5_1" index="1" speed="13.89" length="20.74" shape="-250.53,-992.13 -251.27,-986.04 -252.36,-981.93 -253.41,-977.83 -254.02,-971.73"/>
        <lane id=":J2_5_2" index="2" speed="13.89" length="20.74" shape="-253.74,-992.10 -254.48,-986.05 -255.56,-981.98 -256.61,-977.90 -257.22,-971.84"/>
    </edge>
    <edge id=":J2_8" function="internal">
        <lane id=":J2_8_0" index="0" speed="7.90" length="13.50" shape="-291.74,-984.46 -287.61,-985.05 -284.68,-986.49 -282.92,-988.78 -282.36,-991.91"/>
    </edge>
    <edge id=":J2_9" function="internal">
        <lane id=":J2_9_0" index="0" speed="13.89" length="49.57" shape="-291.74,-984.46 -283.27,-984.92 -268.77,-985.71 -253.34,-986.33 -242.08,-986.27"/>
        <lane id=":J2_9_1" index="1" speed="13.89" length="49.57" shape="-291.74,-984.46 -283.31,-984.43 -268.89,-984.12 -253.55,-983.63 -242.32,-983.08"/>
    </edge>
    <edge id=":J2_11" function="internal">
        <lane id=":J2_11_0" index="0" speed="7.11" length="11.46" shape="-286.12,-972.84 -286.39,-976.60 -287.40,-979.26 -289.14,-980.81 -291.62,-981.26"/>
    </edge>
    <edge id=":J2_12" function="internal">
        <lane id=":J2_12_0" index="0" speed="13.89" length="19.32" shape="-282.93,-972.73 -282.36,-991.91"/>
        <lane id=":J2_12_1" index="1" speed="13.89" length="19.32" shape="-279.73,-972.62 -279.16,-991.94"/>
        <lane id=":J2_12_2" index="2" speed="13.89" length="19.32" shape="-276.53,-972.51 -275.96,-991.96"/>
    </edge>
    <edge id=":J2_15" function="internal">
        <lane id=":J2_15_0" index="0" speed="13.89" length="19.81" shape="-267.97,-972.21 -267.23,-992.01"/>
    </edge>
    <edge id=":J27_0" function="internal">
        <lane id=":J27_0_0" index="0" speed="7.19" length="11.38" shape="-261.38,-52.08 -261.05,-48.39 -260.02,-45.76 -258.27,-44.19 -255.81,-43.69"/>
    </edge>
    <edge id=":J27_1" function="internal">
        <lane id=":J27_1_0" index="0" speed="13.89" length="24.27" shape="-264.58,-52.09 -263.63,-27.78"/>
        <lane id=":J27_1_1" index="1" speed="13.89" length="24.27" shape="-267.78,-52.11 -266.83,-27.83"/>
        <lane id=":J27_1_2" index="2" speed="13.89" length="24.27" shape="-270.98,-52.13 -270.02,-27.88"/>
        <lane id=":J27_1_3" index="3" speed="13.89" length="24.27" shape="-274.18,-52.14 -273.22,-27.93"/>
        <lane id=":J27_1_4" index="4" speed="13.89" length="24.27" shape="-277.38,-52.16 -276.42,-27.98"/>
    </edge>
    <edge id=":J27_6" function="internal">
        <lane id=":J27_6_0" index="0" speed="6.55" length="9.12" shape="-298.22,-46.64 -295.72,-47.00 -293.93,-48.05 -292.86,-49.79 -292.49,-52.24"/>
        <lane id=":J27_6_1" index="1" speed="7.37" length="11.81" shape="-298.22,-46.64 -294.32,-47.00 -291.53,-48.04 -289.86,-49.79 -289.29,-52.22"/>
        <lane id=":J27_6_2" index="2" speed="8.71" length="16.91" shape="-298.21,-43.44 -292.92,-44.00 -289.14,-45.64 -286.86,-48.38 -286.09,-52.21"/>
    </edge>
    <edge id=":J27_9" function="internal">
        <lane id=":J27_9_0" index="0" speed="13.89" length="42.43" shape="-298.20,-40.24 -255.79,-40.49"/>
        <lane id=":J27_9_1" index="1" speed="13.89" length="42.43" shape="-298.20,-37.04 -255.76,-37.29"/>
    </edge>
    <edge id=":J27_11" function="internal">
        <lane id=":J27_11_0" index="0" speed="10.77" length="26.90" shape="-298.19,-33.84 -287.24,-33.49 -279.42,-32.38 -274.75,-30.53 -273.22,-27.93"/>
        <lane id=":J27_11_1" index="1" speed="10.16" length="23.83" shape="-298.19,-33.84 -288.64,-33.49 -281.82,-32.39 -277.75,-30.56 -276.42,-27.98"/>
    </edge>
    <edge id=":J27_13" function="internal">
        <lane id=":J27_13_0" index="0" speed="13.89" length="24.05" shape="-292.64,-28.22 -292.49,-52.24"/>
        <lane id=":J27_13_1" index="1" speed="13.89" length="24.05" shape="-289.44,-28.18 -289.29,-52.22"/>
        <lane id=":J27_13_2" index="2" speed="13.89" length="24.05" shape="-286.24,-28.13 -286.09,-52.21"/>
    </edge>
    <edge id=":J27_16" function="internal">
        <lane id=":J27_16_0" index="0" speed="11.34" length="29.07" shape="-283.04,-28.08 -281.31,-30.62 -276.18,-32.47 -267.65,-33.63 -255.73,-34.09"/>
    </edge>
    <edge id=":J31_0" function="internal">
        <lane id=":J31_0_0" index="0" speed="13.89" length="12.93" shape="-289.91,-530.02 -290.07,-543.18"/>
        <lane id=":J31_0_1" index="1" speed="13.89" length="12.93" shape="-286.72,-530.16 -286.87,-543.16"/>
        <lane id=":J31_0_2" index="2" speed="13.89" length="12.93" shape="-283.52,-530.29 -283.67,-543.14"/>
        <lane id=":J31_0_3" index="3" speed="13.89" length="12.93" shape="-280.32,-530.42 -280.47,-543.12"/>
    </edge>
    <edge id=":J31_4" function="internal">
        <lane id=":J31_4_0" index="0" speed="6.92" length="11.09" shape="-280.32,-530.42 -280.26,-534.64 -279.66,-537.63 -278.53,-539.38 -276.87,-539.90"/>
        <lane id=":J31_4_1" index="1" speed="5.99" length="8.03" shape="-280.32,-530.42 -280.22,-533.24 -279.64,-535.23 -278.58,-536.38 -277.04,-536.70"/>
    </edge>
    <edge id=":J31_6" function="internal">
        <lane id=":J31_6_0" index="0" speed="7.81" length="12.99" shape="-277.20,-533.51 -280.06,-534.24 -282.08,-536.09 -283.29,-539.05 -283.67,-543.14"/>
        <lane id=":J31_6_1" index="1" speed="7.19" length="10.87" shape="-277.20,-533.51 -278.66,-534.17 -279.68,-536.00 -280.29,-538.98 -280.47,-543.12"/>
    </edge>
    <edge id=":J34_0" function="internal">
        <lane id=":J34_0_0" index="0" speed="6.67" length="9.46" shape="-292.97,35.36 -293.37,32.75 -294.47,30.90 -296.28,29.79 -298.79,29.42"/>
    </edge>
    <edge id=":J34_1" function="internal">
        <lane id=":J34_1_0" index="0" speed="13.89" length="21.51" shape="-292.97,35.36 -293.17,13.72"/>
        <lane id=":J34_1_1" index="1" speed="13.89" length="21.51" shape="-289.77,35.31 -289.97,13.76"/>
        <lane id=":J34_1_2" index="2" speed="13.89" length="21.51" shape="-286.57,35.26 -286.78,13.80"/>
        <lane id=":J34_1_3" index="3" speed="13.89" length="21.51" shape="-283.37,35.22 -283.58,13.84"/>
    </edge>
    <edge id=":J34_5" function="internal">
        <lane id=":J34_5_0" index="0" speed="6.48" length="9.03" shape="-258.64,29.29 -261.09,29.65 -262.84,30.71 -263.86,32.47 -264.18,34.93"/>
        <lane id=":J34_5_1" index="1" speed="7.98" length="14.24" shape="-258.65,26.09 -262.52,26.66 -265.26,28.33 -266.88,31.10 -267.38,34.98"/>
    </edge>
    <edge id=":J34_7" function="internal">
        <lane id=":J34_7_0" index="0" speed="13.89" length="40.16" shape="-258.66,22.89 -298.81,23.02"/>
        <lane id=":J34_7_1" index="1" speed="13.89" length="40.16" shape="-258.67,19.69 -298.83,19.82"/>
    </edge>
    <edge id=":J34_9" function="internal">
        <lane id=":J34_9_0" index="0" speed="11.34" length="29.90" shape="-258.67,19.69 -270.99,19.36 -279.79,18.26 -285.05,16.41 -286.78,13.80"/>
        <lane id=":J34_9_1" index="1" speed="10.76" length="26.81" shape="-258.67,19.69 -269.59,19.36 -277.39,18.27 -282.05,16.43 -283.58,13.84"/>
    </edge>
    <edge id=":J34_11" function="internal">
        <lane id=":J34_11_0" index="0" speed="13.89" length="21.11" shape="-264.26,14.09 -264.18,34.93"/>
        <lane id=":J34_11_1" index="1" speed="13.89" length="21.11" shape="-267.46,14.05 -267.38,34.98"/>
        <lane id=":J34_11_2" index="2" speed="13.89" length="21.11" shape="-270.66,14.01 -270.58,35.03"/>
        <lane id=":J34_11_3" index="3" speed="13.89" length="21.11" shape="-273.86,13.96 -273.78,35.07"/>
        <lane id=":J34_11_4" index="4" speed="13.89" length="21.11" shape="-277.06,13.92 -276.98,35.12"/>
        <lane id=":J34_11_5" index="5" speed="13.89" length="21.11" shape="-277.06,13.92 -277.64,20.26 -278.74,24.55 -279.78,28.83 -280.18,35.17"/>
    </edge>
    <edge id=":J34_17" function="internal">
        <lane id=":J34_17_0" index="0" speed="10.28" length="23.77" shape="-277.06,13.92 -278.46,16.47 -282.55,18.31 -289.34,19.42 -298.83,19.82"/>
    </edge>
    <edge id=":J36_0" function="internal">
        <lane id=":J36_0_0" index="0" speed="6.49" length="9.03" shape="-253.93,-300.71 -256.39,-300.40 -258.15,-299.38 -259.22,-297.64 -259.59,-295.19"/>
        <lane id=":J36_0_1" index="1" speed="7.31" length="11.74" shape="-253.93,-300.71 -257.79,-300.42 -260.55,-299.41 -262.22,-297.68 -262.79,-295.22"/>
        <lane id=":J36_0_2" index="2" speed="8.08" length="14.60" shape="-253.93,-300.71 -259.19,-300.45 -262.95,-299.45 -265.22,-297.71 -265.99,-295.24"/>
    </edge>
    <edge id=":J36_3" function="internal">
        <lane id=":J36_3_0" index="0" speed="13.89" length="42.87" shape="-253.93,-300.71 -296.80,-301.14"/>
    </edge>
    <edge id=":J36_4" function="internal">
        <lane id=":J36_4_0" index="0" speed="11.65" length="12.45" shape="-253.93,-300.71 -266.03,-301.46 -266.35,-301.53"/>
    </edge>
    <edge id=":J36_21" function="internal">
        <lane id=":J36_21_0" index="0" speed="11.65" length="18.55" shape="-266.35,-301.53 -274.66,-303.24 -279.83,-306.04 -281.53,-309.87"/>
    </edge>
    <edge id=":J36_5" function="internal">
        <lane id=":J36_5_0" index="0" speed="6.76" length="9.76" shape="-260.20,-309.72 -259.82,-307.22 -258.64,-305.42 -256.66,-304.31 -253.88,-303.91"/>
    </edge>
    <edge id=":J36_6" function="internal">
        <lane id=":J36_6_0" index="0" speed="13.89" length="14.54" shape="-260.20,-309.72 -259.59,-295.19"/>
        <lane id=":J36_6_1" index="1" speed="13.89" length="14.54" shape="-263.40,-309.74 -262.79,-295.22"/>
        <lane id=":J36_6_2" index="2" speed="13.89" length="14.54" shape="-266.60,-309.76 -265.99,-295.24"/>
        <lane id=":J36_6_3" index="3" speed="13.89" length="14.54" shape="-269.80,-309.79 -269.19,-295.26"/>
        <lane id=":J36_6_4" index="4" speed="13.89" length="14.54" shape="-273.00,-309.81 -272.39,-295.29"/>
        <lane id=":J36_6_5" index="5" speed="13.89" length="14.54" shape="-276.20,-309.83 -275.59,-295.31"/>
    </edge>
    <edge id=":J36_12" function="internal">
        <lane id=":J36_12_0" index="0" speed="6.54" length="9.07" shape="-296.80,-304.34 -294.33,-304.70 -292.57,-305.75 -291.50,-307.49 -291.13,-309.94"/>
    </edge>
    <edge id=":J36_13" function="internal">
        <lane id=":J36_13_0" index="0" speed="13.89" length="42.93" shape="-296.80,-304.34 -253.88,-303.91"/>
    </edge>
    <edge id=":J36_14" function="internal">
        <lane id=":J36_14_0" index="0" speed="11.05" length="11.88" shape="-296.80,-304.34 -286.10,-303.79 -284.97,-303.54"/>
        <lane id=":J36_14_1" index="1" speed="10.47" length="10.26" shape="-296.80,-304.34 -287.50,-303.79 -286.59,-303.56"/>
    </edge>
    <edge id=":J36_22" function="internal">
        <lane id=":J36_22_0" index="0" speed="11.05" length="16.29" shape="-284.97,-303.54 -278.46,-302.09 -273.89,-299.26 -272.39,-295.29"/>
    </edge>
    <edge id=":J36_23" function="internal">
        <lane id=":J36_23_0" index="0" speed="10.47" length="14.96" shape="-286.59,-303.56 -280.86,-302.10 -276.89,-299.27 -275.59,-295.31"/>
    </edge>
    <edge id=":J36_16" function="internal">
        <lane id=":J36_16_0" index="0" speed="6.52" length="9.13" shape="-291.22,-295.42 -291.56,-297.93 -292.60,-299.72 -294.35,-300.79 -296.80,-301.14"/>
    </edge>
    <edge id=":J36_17" function="internal">
        <lane id=":J36_17_0" index="0" speed="13.89" length="14.51" shape="-291.22,-295.42 -291.13,-309.94"/>
        <lane id=":J36_17_1" index="1" speed="13.89" length="14.51" shape="-288.02,-295.40 -287.93,-309.91"/>
        <lane id=":J36_17_2" index="2" speed="13.89" length="14.51" shape="-284.82,-295.38 -284.73,-309.89"/>
        <lane id=":J36_17_3" index="3" speed="13.89" length="14.51" shape="-281.62,-295.35 -281.53,-309.87"/>
    </edge>
    <edge id=":J38_0" function="internal">
        <lane id=":J38_0_0" index="0" speed="6.58" length="9.00" shape="-251.73,-529.43 -254.61,-529.16 -256.70,-528.34 -257.98,-526.96 -258.46,-525.04"/>
    </edge>
    <edge id=":J38_1" function="internal">
        <lane id=":J38_1_0" index="0" speed="13.89" length="18.43" shape="-251.73,-532.63 -270.15,-533.14"/>
    </edge>
    <edge id=":J38_2" function="internal">
        <lane id=":J38_2_0" index="0" speed="6.55" length="9.21" shape="-257.30,-544.86 -256.96,-542.31 -255.92,-540.49 -254.17,-539.40 -251.72,-539.03"/>
    </edge>
    <edge id=":J38_3" function="internal">
        <lane id=":J38_3_0" index="0" speed="13.89" length="19.88" shape="-257.30,-544.86 -258.46,-525.04"/>
        <lane id=":J38_3_1" index="1" speed="13.89" length="19.88" shape="-260.50,-544.88 -261.66,-525.03"/>
        <lane id=":J38_3_2" index="2" speed="13.89" length="19.88" shape="-263.70,-544.89 -264.87,-525.02"/>
    </edge>
    <edge id=":J38_6" function="internal">
        <lane id=":J38_6_0" index="0" speed="8.08" length="15.01" shape="-263.70,-544.89 -264.12,-539.63 -265.34,-535.91 -267.35,-533.75 -270.15,-533.14"/>
    </edge>
    <edge id=":J38_7" function="internal">
        <lane id=":J38_7_0" index="0" speed="13.89" length="18.10" shape="-269.82,-539.53 -251.72,-539.03"/>
    </edge>
    <edge id=":J38_8" function="internal">
        <lane id=":J38_8_0" index="0" speed="9.14" length="7.72" shape="-269.82,-539.53 -266.06,-538.46 -263.45,-535.68"/>
    </edge>
    <edge id=":J38_9" function="internal">
        <lane id=":J38_9_0" index="0" speed="13.89" length="18.27" shape="-269.98,-536.34 -251.72,-535.83"/>
    </edge>
    <edge id=":J38_10" function="internal">
        <lane id=":J38_10_0" index="0" speed="7.92" length="2.34" shape="-269.98,-536.34 -267.76,-535.58"/>
    </edge>
    <edge id=":J38_11" function="internal">
        <lane id=":J38_11_0" index="0" speed="9.14" length="10.89" shape="-263.45,-535.68 -261.98,-531.21 -261.66,-525.03"/>
    </edge>
    <edge id=":J38_12" function="internal">
        <lane id=":J38_12_0" index="0" speed="7.92" length="11.36" shape="-267.76,-535.58 -267.59,-535.52 -265.95,-533.37 -265.04,-529.87 -264.87,-525.02"/>
    </edge>
    <edge id=":J4_0" function="internal">
        <lane id=":J4_0_0" index="0" speed="13.89" length="30.41" shape="-287.53,-908.74 -286.89,-939.22"/>
        <lane id=":J4_0_1" index="1" speed="13.89" length="30.41" shape="-284.33,-908.72 -283.69,-939.14"/>
        <lane id=":J4_0_2" index="2" speed="13.89" length="30.41" shape="-281.13,-908.69 -280.49,-939.07"/>
        <lane id=":J4_0_3" index="3" speed="13.89" length="30.41" shape="-277.93,-908.66 -277.29,-939.00"/>
    </edge>
    <edge id=":J4_4" function="internal">
        <lane id=":J4_4_0" index="0" speed="13.89" length="30.37" shape="-277.93,-908.66 -277.30,-919.04 -275.99,-927.48 -274.56,-934.01 -273.54,-938.64"/>
    </edge>
    <edge id=":J40_0" function="internal">
        <lane id=":J40_0_0" index="0" speed="6.97" length="10.18" shape="-275.50,-828.67 -278.28,-829.19 -280.27,-830.44 -281.44,-832.41 -281.82,-835.10"/>
        <lane id=":J40_0_1" index="1" speed="6.20" length="7.83" shape="-275.50,-828.67 -276.89,-829.13 -277.87,-830.35 -278.44,-832.33 -278.62,-835.07"/>
    </edge>
    <edge id=":J40_2" function="internal">
        <lane id=":J40_2_0" index="0" speed="13.89" length="9.43" shape="-288.29,-825.72 -288.22,-835.16"/>
        <lane id=":J40_2_1" index="1" speed="13.89" length="9.43" shape="-285.09,-825.70 -285.02,-835.13"/>
        <lane id=":J40_2_2" index="2" speed="13.89" length="9.43" shape="-281.89,-825.68 -281.82,-835.10"/>
        <lane id=":J40_2_3" index="3" speed="13.89" length="9.43" shape="-278.69,-825.66 -278.62,-835.07"/>
    </edge>
    <edge id=":J40_6" function="internal">
        <lane id=":J40_6_0" index="0" speed="6.04" length="7.88" shape="-278.69,-825.66 -278.47,-828.44 -277.83,-830.40 -276.79,-831.54 -275.34,-831.86"/>
    </edge>
    <edge id=":J42_0" function="internal">
        <lane id=":J42_0_0" index="0" speed="13.89" length="8.05" shape="-258.47,-524.84 -258.77,-517.25"/>
        <lane id=":J42_0_1" index="1" speed="13.89" length="8.05" shape="-258.47,-524.84 -259.08,-522.49 -260.27,-521.06 -261.43,-519.63 -261.97,-517.27"/>
        <lane id=":J42_0_2" index="2" speed="13.89" length="8.05" shape="-261.67,-524.83 -261.97,-517.27"/>
        <lane id=":J42_0_3" index="3" speed="13.89" length="8.05" shape="-261.67,-524.83 -262.28,-522.49 -263.47,-521.06 -264.63,-519.64 -265.17,-517.29"/>
        <lane id=":J42_0_4" index="4" speed="13.89" length="8.05" shape="-264.87,-524.82 -265.17,-517.29"/>
        <lane id=":J42_0_5" index="5" speed="13.89" length="8.05" shape="-264.87,-524.82 -265.48,-522.49 -266.67,-521.07 -267.83,-519.65 -268.37,-517.31"/>
    </edge>
    <edge id=":J42_6" function="internal">
        <lane id=":J42_6_0" index="0" speed="13.89" length="7.45" shape="-289.66,-517.46 -289.69,-524.68"/>
        <lane id=":J42_6_1" index="1" speed="13.89" length="7.45" shape="-286.46,-517.44 -286.49,-524.82"/>
        <lane id=":J42_6_2" index="2" speed="13.89" length="7.45" shape="-283.26,-517.42 -283.29,-524.95"/>
        <lane id=":J42_6_3" index="3" speed="13.89" length="7.45" shape="-280.06,-517.40 -280.10,-525.08"/>
    </edge>
    <edge id=":J43_0" function="internal">
        <lane id=":J43_0_0" index="0" speed="13.89" length="9.26" shape="-255.58,-834.09 -255.77,-824.92"/>
        <lane id=":J43_0_1" index="1" speed="13.89" length="9.26" shape="-258.78,-834.20 -258.97,-824.94"/>
        <lane id=":J43_0_2" index="2" speed="13.89" length="9.26" shape="-261.98,-834.31 -262.17,-824.96"/>
    </edge>
    <edge id=":J43_3" function="internal">
        <lane id=":J43_3_0" index="0" speed="6.06" length="7.80" shape="-261.98,-834.31 -262.27,-831.56 -262.94,-829.61 -263.97,-828.48 -265.37,-828.15"/>
    </edge>
    <edge id=":J43_4" function="internal">
        <lane id=":J43_4_0" index="0" speed="6.95" length="10.10" shape="-265.21,-831.35 -262.47,-830.83 -260.51,-829.59 -259.34,-827.62 -258.97,-824.94"/>
        <lane id=":J43_4_1" index="1" speed="6.18" length="7.77" shape="-265.21,-831.35 -263.86,-830.89 -262.91,-829.67 -262.34,-827.69 -262.17,-824.96"/>
    </edge>
    <edge id=":J5_0" function="internal">
        <lane id=":J5_0_0" index="0" speed="13.89" length="0.16" shape="-268.02,-971.47 -268.02,-971.51 -268.01,-971.55 -268.01,-971.58 -268.01,-971.63"/>
    </edge>
    <edge id=":J51_0" function="internal">
        <lane id=":J51_0_0" index="0" speed="12.60" length="38.37" shape="-235.32,-1344.03 -233.57,-1337.16 -227.83,-1332.38 -218.10,-1329.69 -204.39,-1329.10"/>
    </edge>
    <edge id=":J51_1" function="internal">
        <lane id=":J51_1_0" index="0" speed="13.89" length="28.53" shape="-235.32,-1344.03 -235.55,-1336.04 -235.20,-1330.49 -233.61,-1325.22 -230.13,-1318.10"/>
        <lane id=":J51_1_1" index="1" speed="13.89" length="28.53" shape="-238.52,-1344.13 -238.78,-1335.83 -238.46,-1330.06 -236.86,-1324.58 -233.26,-1317.19"/>
        <lane id=":J51_1_2" index="2" speed="13.89" length="28.53" shape="-241.72,-1344.22 -242.01,-1335.62 -241.72,-1329.62 -240.11,-1323.94 -236.40,-1316.27"/>
        <lane id=":J51_1_3" index="3" speed="13.89" length="28.53" shape="-244.91,-1344.32 -245.24,-1335.41 -244.99,-1329.19 -243.36,-1323.30 -239.54,-1315.35"/>
    </edge>
    <edge id=":J51_5" function="internal">
        <lane id=":J51_5_0" index="0" speed="13.89" length="50.12" shape="-253.28,-1339.60 -239.38,-1336.84 -227.02,-1333.25 -215.56,-1330.20 -204.39,-1329.10"/>
    </edge>
    <edge id=":J51_6" function="internal">
        <lane id=":J51_6_0" index="0" speed="13.89" length="32.70" shape="-253.28,-1339.60 -247.12,-1337.66 -241.21,-1333.43 -235.54,-1326.91 -230.13,-1318.10"/>
    </edge>
    <edge id=":J51_7" function="internal">
        <lane id=":J51_7_0" index="0" speed="13.89" length="49.90" shape="-253.68,-1336.42 -239.71,-1334.16 -227.22,-1331.66 -215.63,-1329.71 -204.39,-1329.10"/>
    </edge>
    <edge id=":J51_8" function="internal">
        <lane id=":J51_8_0" index="0" speed="13.89" length="29.02" shape="-253.68,-1336.42 -248.31,-1334.70 -243.12,-1330.93 -238.10,-1325.09 -233.26,-1317.19"/>
    </edge>
    <edge id=":J51_9" function="internal">
        <lane id=":J51_9_0" index="0" speed="13.89" length="50.39" shape="-254.08,-1333.25 -240.04,-1330.98 -227.37,-1328.47 -215.61,-1326.51 -204.30,-1325.90"/>
    </edge>
    <edge id=":J51_10" function="internal">
        <lane id=":J51_10_0" index="0" speed="13.89" length="25.34" shape="-254.08,-1333.25 -249.50,-1331.75 -245.02,-1328.42 -240.66,-1323.26 -236.40,-1316.27"/>
    </edge>
    <edge id=":J51_11" function="internal">
        <lane id=":J51_11_0" index="0" speed="13.89" length="50.88" shape="-254.48,-1330.07 -240.36,-1327.81 -227.52,-1325.29 -215.60,-1323.32 -204.21,-1322.70"/>
    </edge>
    <edge id=":J51_12" function="internal">
        <lane id=":J51_12_0" index="0" speed="13.26" length="21.66" shape="-254.48,-1330.07 -250.69,-1328.79 -246.93,-1325.91 -243.22,-1321.43 -239.54,-1315.35"/>
    </edge>
    <edge id=":J54_0" function="internal">
        <lane id=":J54_0_0" index="0" speed="9.17" length="19.22" shape="-309.39,-1325.46 -304.24,-1326.26 -300.60,-1328.57 -298.48,-1332.38 -297.88,-1337.69"/>
    </edge>
    <edge id=":J54_1" function="internal">
        <lane id=":J54_1_0" index="0" speed="13.89" length="28.03" shape="-309.39,-1325.46 -301.84,-1326.11 -296.87,-1327.84 -292.15,-1330.59 -285.32,-1334.31"/>
        <lane id=":J54_1_1" index="1" speed="13.89" length="28.03" shape="-309.39,-1325.46 -301.44,-1325.66 -296.00,-1326.41 -290.80,-1328.21 -283.60,-1331.59"/>
        <lane id=":J54_1_2" index="2" speed="13.89" length="28.03" shape="-309.36,-1322.26 -300.89,-1322.48 -295.09,-1323.30 -289.55,-1325.26 -281.88,-1328.86"/>
        <lane id=":J54_1_3" index="3" speed="13.89" length="28.03" shape="-309.33,-1319.06 -300.34,-1319.30 -294.19,-1320.20 -288.31,-1322.30 -280.15,-1326.14"/>
    </edge>
    <edge id=":J54_5" function="internal">
        <lane id=":J54_5_0" index="0" speed="13.89" length="25.59" shape="-304.61,-1313.25 -302.37,-1320.51 -300.11,-1325.36 -298.42,-1330.27 -297.88,-1337.69"/>
    </edge>
    <edge id=":J54_6" function="internal">
        <lane id=":J54_6_0" index="0" speed="13.89" length="29.54" shape="-304.61,-1313.25 -302.33,-1319.49 -298.35,-1325.08 -292.68,-1330.02 -285.32,-1334.31"/>
    </edge>
    <edge id=":J54_7" function="internal">
        <lane id=":J54_7_0" index="0" speed="13.89" length="26.34" shape="-301.48,-1312.56 -299.20,-1320.05 -296.91,-1325.06 -295.21,-1330.12 -294.68,-1337.77"/>
    </edge>
    <edge id=":J54_8" function="internal">
        <lane id=":J54_8_0" index="0" speed="13.89" length="26.99" shape="-301.48,-1312.56 -299.41,-1318.11 -295.74,-1323.12 -290.47,-1327.62 -283.60,-1331.59"/>
    </edge>
    <edge id=":J54_9" function="internal">
        <lane id=":J54_9_0" index="0" speed="13.89" length="27.09" shape="-298.35,-1311.88 -296.02,-1319.59 -293.72,-1324.75 -292.01,-1329.97 -291.48,-1337.85"/>
    </edge>
    <edge id=":J54_10" function="internal">
        <lane id=":J54_10_0" index="0" speed="13.89" length="24.45" shape="-298.35,-1311.88 -296.50,-1316.73 -293.13,-1321.17 -288.26,-1325.22 -281.88,-1328.86"/>
    </edge>
    <edge id=":J54_11" function="internal">
        <lane id=":J54_11_0" index="0" speed="13.89" length="27.04" shape="-295.23,-1311.20 -293.38,-1319.02 -292.15,-1324.41 -291.52,-1329.86 -291.48,-1337.85"/>
    </edge>
    <edge id=":J54_12" function="internal">
        <lane id=":J54_12_0" index="0" speed="13.84" length="21.91" shape="-295.23,-1311.20 -293.58,-1315.35 -290.52,-1319.22 -286.05,-1322.82 -280.15,-1326.14"/>
    </edge>
    <edge id=":J56_0" function="internal">
        <lane id=":J56_0_0" index="0" speed="12.75" length="37.84" shape="-284.07,-1244.90 -285.54,-1255.65 -289.79,-1263.29 -296.80,-1267.81 -306.60,-1269.22"/>
    </edge>
    <edge id=":J56_1" function="internal">
        <lane id=":J56_1_0" index="0" speed="13.89" length="44.76" shape="-280.87,-1244.92 -283.51,-1254.34 -289.64,-1261.90 -296.76,-1270.25 -302.39,-1282.07"/>
        <lane id=":J56_1_1" index="1" speed="13.89" length="44.76" shape="-280.87,-1244.92 -283.08,-1254.64 -288.24,-1262.84 -294.41,-1271.85 -299.60,-1283.96"/>
        <lane id=":J56_1_2" index="2" speed="13.89" length="44.76" shape="-277.67,-1244.94 -279.94,-1254.95 -285.25,-1263.80 -291.55,-1273.45 -296.81,-1285.86"/>
        <lane id=":J56_1_3" index="3" speed="13.89" length="44.76" shape="-277.67,-1244.94 -279.51,-1255.25 -283.85,-1264.75 -289.20,-1275.05 -294.02,-1287.75"/>
    </edge>
    <edge id=":J56_5" function="internal">
        <lane id=":J56_5_0" index="0" speed="13.89" length="39.13" shape="-271.68,-1253.08 -283.09,-1256.51 -290.68,-1262.00 -297.50,-1267.07 -306.60,-1269.22"/>
    </edge>
    <edge id=":J56_6" function="internal">
        <lane id=":J56_6_0" index="0" speed="13.89" length="45.05" shape="-271.68,-1253.08 -282.33,-1255.84 -290.99,-1261.59 -297.68,-1270.33 -302.39,-1282.07"/>
    </edge>
    <edge id=":J56_7" function="internal">
        <lane id=":J56_7_0" index="0" speed="13.89" length="23.00" shape="-270.63,-1256.19 -282.43,-1259.65 -290.38,-1265.18 -291.21,-1265.78"/>
    </edge>
    <edge id=":J56_8" function="internal">
        <lane id=":J56_8_0" index="0" speed="13.89" length="42.80" shape="-270.63,-1256.19 -280.63,-1258.81 -288.79,-1264.31 -295.11,-1272.70 -299.60,-1283.96"/>
    </edge>
    <edge id=":J56_9" function="internal">
        <lane id=":J56_9_0" index="0" speed="13.89" length="19.89" shape="-269.59,-1259.29 -281.66,-1262.78 -287.75,-1266.85"/>
    </edge>
    <edge id=":J56_10" function="internal">
        <lane id=":J56_10_0" index="0" speed="13.89" length="40.55" shape="-269.59,-1259.29 -278.93,-1261.78 -286.58,-1267.04 -292.54,-1275.06 -296.81,-1285.86"/>
    </edge>
    <edge id=":J56_11" function="internal">
        <lane id=":J56_11_0" index="0" speed="13.89" length="11.17" shape="-268.54,-1262.40 -279.39,-1265.06"/>
    </edge>
    <edge id=":J56_12" function="internal">
        <lane id=":J56_12_0" index="0" speed="13.89" length="38.31" shape="-268.54,-1262.40 -277.23,-1264.75 -284.37,-1269.76 -289.97,-1277.43 -294.02,-1287.75"/>
    </edge>
    <edge id=":J56_13" function="internal">
        <lane id=":J56_13_0" index="0" speed="13.89" length="17.12" shape="-291.21,-1265.78 -297.45,-1270.26 -306.64,-1272.42"/>
    </edge>
    <edge id=":J56_14" function="internal">
        <lane id=":J56_14_0" index="0" speed="13.89" length="21.23" shape="-287.75,-1266.85 -289.97,-1268.34 -297.36,-1273.45 -306.69,-1275.62"/>
    </edge>
    <edge id=":J56_15" function="internal">
        <lane id=":J56_15_0" index="0" speed="13.89" length="29.57" shape="-279.39,-1265.06 -280.78,-1265.40 -289.45,-1269.89 -297.19,-1273.94 -306.69,-1275.62"/>
    </edge>
    <edge id=":J60_0" function="internal">
        <lane id=":J60_0_0" index="0" speed="12.88" length="30.52" shape="-202.27,-1279.41 -207.23,-1278.85 -212.32,-1275.29 -217.55,-1268.74 -222.90,-1259.20"/>
    </edge>
    <edge id=":J60_1" function="internal">
        <lane id=":J60_1_0" index="0" speed="13.89" length="37.49" shape="-202.27,-1279.41 -211.65,-1279.90 -220.13,-1277.63 -227.69,-1272.61 -234.35,-1264.83"/>
    </edge>