<?xml version="1.0" encoding="UTF-8"?>

<!-- generated on 2024-01-07 16:00:38 by Eclipse SUMO netedit Version 1.18.0
-->

<routes xmlns:xsi="http://www.w3.org/2001/XMLSchema-instance" xsi:noNamespaceSchemaLocation="http://sumo.dlr.de/xsd/routes_file.xsd">
    <!-- VTypes -->
    <vType id="t_0" emissionClass="HBEFA4/PC_petrol_Euro-4"/>
    <vType id="t_1" emissionClass="HBEFA4/PC_petrol_Euro-5"/>
    <vType id="t_2" emissionClass="HBEFA4/PC_petrol_Euro-6ab"/>
    <!-- Vehicles, persons and containers (sorted by depart) -->
<flow id="f_23"  type="t_0"  begin="0"  color="yellow"  from="E12"  to="E53.21"  end="18000"  period="exp(0.005)"/>
<flow id="f_24"  type="t_0"  begin="0"  color="yellow"  from="E13"  to="E53.21"  end="18000"  period="exp(0.005)"/>
<flow id="f_25"  type="t_0"  begin="0"  color="yellow"  from="E19"  to="E53.21"  end="18000"  period="exp(0.005)"/>
<flow id="f_26"  type="t_0"  begin="0"  color="yellow"  from="E22"  to="E45"  end="18000"  period="exp(0.005)"/>
<flow id="f_27"  type="t_0"  begin="0"  color="yellow"  from="E7"  to="E45"  end="18000"  period="exp(0.005)"/>
<flow id="f_28"  type="t_0"  begin="0"  color="yellow"  from="E32"  to="E31"  end="18000"  period="exp(0.005)"/>
<flow id="f_29"  type="t_0"  begin="0"  color="yellow"  from="E24"  to="E27"  end="18000"  period="exp(0.005)"/>
<flow id="f_30"  type="t_0"  begin="0"  color="yellow"  from="E30"  to="E28"  end="18000"  period="exp(0.005)"/>
<flow id="f_31"  type="t_0"  begin="0"  color="yellow"  from="-E3"  to="E5"  end="18000"  period="exp(0.005)"/>
<flow id="f_32"  type="t_0"  begin="0"  color="yellow"  from="-E5"  to="E3"  end="18000"  period="exp(0.005)"/>
<flow id="f_33"  type="t_0"  begin="0"  color="yellow"  from="-E43"  to="E40"  end="18000"  period="exp(0.005)"/>
<flow id="f_34"  type="t_0"  begin="0"  color="yellow"  from="-E26"  to="E34"  end="18000"  period="exp(0.005)"/>
<flow id="f_35"  type="t_0"  begin="0"  color="yellow"  from="-E33"  to="E26"  end="18000"  period="exp(0.005)"/>
<flow id="f_608"  type="t_1"  begin="0"  color="blue"  from="E12"  to="E53.21"  end="18000"  period="exp(0.005)"/>
<flow id="f_609"  type="t_1"  begin="0"  color="blue"  from="E13"  to="E53.21"  end="18000"  period="exp(0.005)"/>
<flow id="f_610"  type="t_1"  begin="0"  color="blue"  from="E19"  to="E53.21"  end="18000"  period="exp(0.005)"/>
<flow id="f_611"  type="t_1"  begin="0"  color="blue"  from="E22"  to="E45"  end="18000"  period="exp(0.005)"/>
<flow id="f_612"  type="t_1"  begin="0"  color="blue"  from="E7"  to="E45"  end="18000"  period="exp(0.005)"/>
<flow id="f_613"  type="t_1"  begin="0"  color="blue"  from="E32"  to="E31"  end="18000"  period="exp(0.005)"/>
<flow id="f_614"  type="t_1"  begin="0"  color="blue"  from="E24"  to="E27"  end="18000"  period="exp(0.005)"/>
<flow id="f_615"  type="t_1"  begin="0"  color="blue"  from="E30"  to="E28"  end="18000"  period="exp(0.005)"/>
<flow id="f_616"  type="t_1"  begin="0"  color="blue"  from="-E3"  to="E5"  end="18000"  period="exp(0.005)"/>
<flow id="f_617"  type="t_1"  begin="0"  color="blue"  from="-E5"  to="E3"  end="18000"  period="exp(0.005)"/>
<flow id="f_618"  type="t_1"  begin="0"  color="blue"  from="-E43"  to="E40"  end="18000"  period="exp(0.005)"/>
<flow id="f_619"  type="t_1"  begin="0"  color="blue"  from="-E26"  to="E34"  end="18000"  period="exp(0.005)"/>
<flow id="f_620"  type="t_1"  begin="0"  color="blue"  from="-E33"  to="E26"  end="18000"  period="exp(0.005)"/>
<flow id="f_1193"  type="t_2"  begin="0"  color="green"  from="E12"  to="E53.21"  end="18000"  period="exp(0.005)"/>
<flow id="f_1194"  type="t_2"  begin="0"  color="green"  from="E13"  to="E53.21"  end="18000"  period="exp(0.005)"/>
<flow id="f_1195"  type="t_2"  begin="0"  color="green"  from="E19"  to="E53.21"  end="18000"  period="exp(0.005)"/>
<flow id="f_1196"  type="t_2"  begin="0"  color="green"  from="E22"  to="E45"  end="18000"  period="exp(0.005)"/>
<flow id="f_1197"  type="t_2"  begin="0"  color="green"  from="E7"  to="E45"  end="18000"  period="exp(0.005)"/>
<flow id="f_1198"  type="t_2"  begin="0"  color="green"  from="E32"  to="E31"  end="18000"  period="exp(0.005)"/>
<flow id="f_1199"  type="t_2"  begin="0"  color="green"  from="E24"  to="E27"  end="18000"  period="exp(0.005)"/>
<flow id="f_1200"  type="t_2"  begin="0"  color="green"  from="E30"  to="E28"  end="18000"  period="exp(0.005)"/>
<flow id="f_1201"  type="t_2"  begin="0"  color="green"  from="-E3"  to="E5"  end="18000"  period="exp(0.005)"/>
<flow id="f_1202"  type="t_2"  begin="0"  color="green"  from="-E5"  to="E3"  end="18000"  period="exp(0.005)"/>
<flow id="f_1203"  type="t_2"  begin="0"  color="green"  from="-E43"  to="E40"  end="18000"  period="exp(0.005)"/>
<flow id="f_1204"  type="t_2"  begin="0"  color="green"  from="-E26"  to="E34"  end="18000"  period="exp(0.005)"/>
<flow id="f_1205"  type="t_2"  begin="0"  color="green"  from="-E33"  to="E26"  end="18000"  period="exp(0.005)"/>
<flow id="f_36"  type="t_0"  begin="18000"  color="yellow"  from="E12"  to="E53.21"  end="25200"  period="exp(0.0006)"/>
<flow id="f_37"  type="t_0"  begin="18000"  color="yellow"  from="E13"  to="E53.21"  end="25200"  period="exp(0.0051)"/>
<flow id="f_38"  type="t_0"  begin="18000"  color="yellow"  from="E19"  to="E53.21"  end="25200"  period="exp(0.0411)"/>
<flow id="f_39"  type="t_0"  begin="18000"  color="yellow"  from="E22"  to="E45"  end="25200"  period="exp(0.012)"/>
<flow id="f_40"  type="t_0"  begin="18000"  color="yellow"  from="E7"  to="E45"  end="25200"  period="exp(0.0144)"/>
<flow id="f_41"  type="t_0"  begin="18000"  color="yellow"  from="E32"  to="E31"  end="25200"  period="exp(0.021)"/>
<flow id="f_42"  type="t_0"  begin="18000"  color="yellow"  from="E24"  to="E27"  end="25200"  period="exp(0.021)"/>
<flow id="f_43"  type="t_0"  begin="18000"  color="yellow"  from="E30"  to="E28"  end="25200"  period="exp(0.021)"/>
<flow id="f_44"  type="t_0"  begin="18000"  color="yellow"  from="-E3"  to="E5"  end="25200"  period="exp(0.003)"/>
<flow id="f_45"  type="t_0"  begin="18000"  color="yellow"  from="-E5"  to="E3"  end="25200"  period="exp(0.003)"/>
<flow id="f_46"  type="t_0"  begin="18000"  color="yellow"  from="-E43"  to="E40"  end="25200"  period="exp(0.003)"/>
<flow id="f_47"  type="t_0"  begin="18000"  color="yellow"  from="-E26"  to="E34"  end="25200"  period="exp(0.003)"/>
<flow id="f_48"  type="t_0"  begin="18000"  color="yellow"  from="-E33"  to="E26"  end="25200"  period="exp(0.003)"/>
<flow id="f_621"  type="t_1"  begin="18000"  color="blue"  from="E12"  to="E53.21"  end="25200"  period="exp(0.0006)"/>
<flow id="f_622"  type="t_1"  begin="18000"  color="blue"  from="E13"  to="E53.21"  end="25200"  period="exp(0.0051)"/>
<flow id="f_623"  type="t_1"  begin="18000"  color="blue"  from="E19"  to="E53.21"  end="25200"  period="exp(0.0411)"/>
<flow id="f_624"  type="t_1"  begin="18000"  color="blue"  from="E22"  to="E45"  end="25200"  period="exp(0.012)"/>
<flow id="f_625"  type="t_1"  begin="18000"  color="blue"  from="E7"  to="E45"  end="25200"  period="exp(0.0144)"/>
<flow id="f_626"  type="t_1"  begin="18000"  color="blue"  from="E32"  to="E31"  end="25200"  period="exp(0.021)"/>
<flow id="f_627"  type="t_1"  begin="18000"  color="blue"  from="E24"  to="E27"  end="25200"  period="exp(0.021)"/>
<flow id="f_628"  type="t_1"  begin="18000"  color="blue"  from="E30"  to="E28"  end="25200"  period="exp(0.021)"/>
<flow id="f_629"  type="t_1"  begin="18000"  color="blue"  from="-E3"  to="E5"  end="25200"  period="exp(0.003)"/>
<flow id="f_630"  type="t_1"  begin="18000"  color="blue"  from="-E5"  to="E3"  end="25200"  period="exp(0.003)"/>
<flow id="f_631"  type="t_1"  begin="18000"  color="blue"  from="-E43"  to="E40"  end="25200"  period="exp(0.003)"/>
<flow id="f_632"  type="t_1"  begin="18000"  color="blue"  from="-E26"  to="E34"  end="25200"  period="exp(0.003)"/>
<flow id="f_633"  type="t_1"  begin="18000"  color="blue"  from="-E33"  to="E26"  end="25200"  period="exp(0.003)"/>
<flow id="f_1206"  type="t_2"  begin="18000"  color="green"  from="E12"  to="E53.21"  end="25200"  period="exp(0.0006)"/>
<flow id="f_1207"  type="t_2"  begin="18000"  color="green"  from="E13"  to="E53.21"  end="25200"  period="exp(0.0051)"/>
<flow id="f_1208"  type="t_2"  begin="18000"  color="green"  from="E19"  to="E53.21"  end="25200"  period="exp(0.0411)"/>
<flow id="f_1209"  type="t_2"  begin="18000"  color="green"  from="E22"  to="E45"  end="25200"  period="exp(0.012)"/>
<flow id="f_1210"  type="t_2"  begin="18000"  color="green"  from="E7"  to="E45"  end="25200"  period="exp(0.0144)"/>
<flow id="f_1211"  type="t_2"  begin="18000"  color="green"  from="E32"  to="E31"  end="25200"  period="exp(0.021)"/>
<flow id="f_1212"  type="t_2"  begin="18000"  color="green"  from="E24"  to="E27"  end="25200"  period="exp(0.021)"/>
<flow id="f_1213"  type="t_2"  begin="18000"  color="green"  from="E30"  to="E28"  end="25200"  period="exp(0.021)"/>
<flow id="f_1214"  type="t_2"  begin="18000"  color="green"  from="-E3"  to="E5"  end="25200"  period="exp(0.003)"/>
<flow id="f_1215"  type="t_2"  begin="18000"  color="green"  from="-E5"  to="E3"  end="25200"  period="exp(0.003)"/>
<flow id="f_1216"  type="t_2"  begin="18000"  color="green"  from="-E43"  to="E40"  end="25200"  period="exp(0.003)"/>
<flow id="f_1217"  type="t_2"  begin="18000"  color="green"  from="-E26"  to="E34"  end="25200"  period="exp(0.003)"/>
<flow id="f_1218"  type="t_2"  begin="18000"  color="green"  from="-E33"  to="E26"  end="25200"  period="exp(0.003)"/>
<flow id="f_49"  type="t_0"  begin="25200"  color="yellow"  from="E12"  to="E53.21"  end="32400"  period="exp(0.002)"/>
<flow id="f_50"  type="t_0"  begin="25200"  color="yellow"  from="E13"  to="E53.21"  end="32400"  period="exp(0.017)"/>
<flow id="f_51"  type="t_0"  begin="25200"  color="yellow"  from="E19"  to="E53.21"  end="32400"  period="exp(0.137)"/>
<flow id="f_52"  type="t_0"  begin="25200"  color="yellow"  from="E22"  to="E45"  end="32400"  period="exp(0.04)"/>
<flow id="f_53"  type="t_0"  begin="25200"  color="yellow"  from="E7"  to="E45"  end="32400"  period="exp(0.048)"/>
<flow id="f_54"  type="t_0"  begin="25200"  color="yellow"  from="E32"  to="E31"  end="32400"  period="exp(0.07)"/>
<flow id="f_55"  type="t_0"  begin="25200"  color="yellow"  from="E24"  to="E27"  end="32400"  period="exp(0.07)"/>
<flow id="f_56"  type="t_0"  begin="25200"  color="yellow"  from="E30"  to="E28"  end="32400"  period="exp(0.07)"/>
<flow id="f_57"  type="t_0"  begin="25200"  color="yellow"  from="-E3"  to="E5"  end="32400"  period="exp(0.01)"/>
<flow id="f_58"  type="t_0"  begin="25200"  color="yellow"  from="-E5"  to="E3"  end="32400"  period="exp(0.01)"/>
<flow id="f_59"  type="t_0"  begin="25200"  color="yellow"  from="-E43"  to="E40"  end="32400"  period="exp(0.01)"/>
<flow id="f_60"  type="t_0"  begin="25200"  color="yellow"  from="-E26"  to="E34"  end="32400"  period="exp(0.01)"/>
<flow id="f_61"  type="t_0"  begin="25200"  color="yellow"  from="-E33"  to="E26"  end="32400"  period="exp(0.01)"/>
<flow id="f_634"  type="t_1"  begin="25200"  color="blue"  from="E12"  to="E53.21"  end="32400"  period="exp(0.002)"/>
<flow id="f_635"  type="t_1"  begin="25200"  color="blue"  from="E13"  to="E53.21"  end="32400"  period="exp(0.017)"/>
<flow id="f_636"  type="t_1"  begin="25200"  color="blue"  from="E19"  to="E53.21"  end="32400"  period="exp(0.137)"/>
<flow id="f_637"  type="t_1"  begin="25200"  color="blue"  from="E22"  to="E45"  end="32400"  period="exp(0.04)"/>
<flow id="f_638"  type="t_1"  begin="25200"  color="blue"  from="E7"  to="E45"  end="32400"  period="exp(0.048)"/>
<flow id="f_639"  type="t_1"  begin="25200"  color="blue"  from="E32"  to="E31"  end="32400"  period="exp(0.07)"/>
<flow id="f_640"  type="t_1"  begin="25200"  color="blue"  from="E24"  to="E27"  end="32400"  period="exp(0.07)"/>
<flow id="f_641"  type="t_1"  begin="25200"  color="blue"  from="E30"  to="E28"  end="32400"  period="exp(0.07)"/>
<flow id="f_642"  type="t_1"  begin="25200"  color="blue"  from="-E3"  to="E5"  end="32400"  period="exp(0.01)"/>
<flow id="f_643"  type="t_1"  begin="25200"  color="blue"  from="-E5"  to="E3"  end="32400"  period="exp(0.01)"/>
<flow id="f_644"  type="t_1"  begin="25200"  color="blue"  from="-E43"  to="E40"  end="32400"  period="exp(0.01)"/>
<flow id="f_645"  type="t_1"  begin="25200"  color="blue"  from="-E26"  to="E34"  end="32400"  period="exp(0.01)"/>
<flow id="f_646"  type="t_1"  begin="25200"  color="blue"  from="-E33"  to="E26"  end="32400"  period="exp(0.01)"/>
<flow id="f_1219"  type="t_2"  begin="25200"  color="green"  from="E12"  to="E53.21"  end="32400"  period="exp(0.002)"/>
<flow id="f_1220"  type="t_2"  begin="25200"  color="green"  from="E13"  to="E53.21"  end="32400"  period="exp(0.017)"/>
<flow id="f_1221"  type="t_2"  begin="25200"  color="green"  from="E19"  to="E53.21"  end="32400"  period="exp(0.137)"/>
<flow id="f_1222"  type="t_2"  begin="25200"  color="green"  from="E22"  to="E45"  end="32400"  period="exp(0.04)"/>
<flow id="f_1223"  type="t_2"  begin="25200"  color="green"  from="E7"  to="E45"  end="32400"  period="exp(0.048)"/>
<flow id="f_1224"  type="t_2"  begin="25200"  color="green"  from="E32"  to="E31"  end="32400"  period="exp(0.07)"/>
<flow id="f_1225"  type="t_2"  begin="25200"  color="green"  from="E24"  to="E27"  end="32400"  period="exp(0.07)"/>
<flow id="f_1226"  type="t_2"  begin="25200"  color="green"  from="E30"  to="E28"  end="32400"  period="exp(0.07)"/>
<flow id="f_1227"  type="t_2"  begin="25200"  color="green"  from="-E3"  to="E5"  end="32400"  period="exp(0.01)"/>
<flow id="f_1228"  type="t_2"  begin="25200"  color="green"  from="-E5"  to="E3"  end="32400"  period="exp(0.01)"/>
<flow id="f_1229"  type="t_2"  begin="25200"  color="green"  from="-E43"  to="E40"  end="32400"  period="exp(0.01)"/>
<flow id="f_1230"  type="t_2"  begin="25200"  color="green"  from="-E26"  to="E34"  end="32400"  period="exp(0.01)"/>
<flow id="f_1231"  type="t_2"  begin="25200"  color="green"  from="-E33"  to="E26"  end="32400"  period="exp(0.01)"/>
<flow id="f_62"  type="t_0"  begin="32400"  color="yellow"  from="E12"  to="E53.21"  end="39600"  period="exp(0.001)"/>
<flow id="f_63"  type="t_0"  begin="32400"  color="yellow"  from="E13"  to="E53.21"  end="39600"  period="exp(0.0085)"/>
<flow id="f_64"  type="t_0"  begin="32400"  color="yellow"  from="E19"  to="E53.21"  end="39600"  period="exp(0.0685)"/>
<flow id="f_65"  type="t_0"  begin="32400"  color="yellow"  from="E22"  to="E45"  end="39600"  period="exp(0.02)"/>
<flow id="f_66"  type="t_0"  begin="32400"  color="yellow"  from="E7"  to="E45"  end="39600"  period="exp(0.024)"/>
<flow id="f_67"  type="t_0"  begin="32400"  color="yellow"  from="E32"  to="E31"  end="39600"  period="exp(0.035)"/>
<flow id="f_68"  type="t_0"  begin="32400"  color="yellow"  from="E24"  to="E27"  end="39600"  period="exp(0.035)"/>
<flow id="f_69"  type="t_0"  begin="32400"  color="yellow"  from="E30"  to="E28"  end="39600"  period="exp(0.035)"/>
<flow id="f_70"  type="t_0"  begin="32400"  color="yellow"  from="-E3"  to="E5"  end="39600"  period="exp(0.005)"/>
<flow id="f_71"  type="t_0"  begin="32400"  color="yellow"  from="-E5"  to="E3"  end="39600"  period="exp(0.005)"/>
<flow id="f_72"  type="t_0"  begin="32400"  color="yellow"  from="-E43"  to="E40"  end="39600"  period="exp(0.005)"/>
<flow id="f_73"  type="t_0"  begin="32400"  color="yellow"  from="-E26"  to="E34"  end="39600"  period="exp(0.005)"/>
<flow id="f_74"  type="t_0"  begin="32400"  color="yellow"  from="-E33"  to="E26"  end="39600"  period="exp(0.005)"/>
<flow id="f_647"  type="t_1"  begin="32400"  color="blue"  from="E12"  to="E53.21"  end="39600"  period="exp(0.001)"/>
<flow id="f_648"  type="t_1"  begin="32400"  color="blue"  from="E13"  to="E53.21"  end="39600"  period="exp(0.0085)"/>
<flow id="f_649"  type="t_1"  begin="32400"  color="blue"  from="E19"  to="E53.21"  end="39600"  period="exp(0.0685)"/>
<flow id="f_650"  type="t_1"  begin="32400"  color="blue"  from="E22"  to="E45"  end="39600"  period="exp(0.02)"/>
<flow id="f_651"  type="t_1"  begin="32400"  color="blue"  from="E7"  to="E45"  end="39600"  period="exp(0.024)"/>
<flow id="f_652"  type="t_1"  begin="32400"  color="blue"  from="E32"  to="E31"  end="39600"  period="exp(0.035)"/>
<flow id="f_653"  type="t_1"  begin="32400"  color="blue"  from="E24"  to="E27"  end="39600"  period="exp(0.035)"/>
<flow id="f_654"  type="t_1"  begin="32400"  color="blue"  from="E30"  to="E28"  end="39600"  period="exp(0.035)"/>
<flow id="f_655"  type="t_1"  begin="32400"  color="blue"  from="-E3"  to="E5"  end="39600"  period="exp(0.005)"/>
<flow id="f_656"  type="t_1"  begin="32400"  color="blue"  from="-E5"  to="E3"  end="39600"  period="exp(0.005)"/>
<flow id="f_657"  type="t_1"  begin="32400"  color="blue"  from="-E43"  to="E40"  end="39600"  period="exp(0.005)"/>
<flow id="f_658"  type="t_1"  begin="32400"  color="blue"  from="-E26"  to="E34"  end="39600"  period="exp(0.005)"/>
<flow id="f_659"  type="t_1"  begin="32400"  color="blue"  from="-E33"  to="E26"  end="39600"  period="exp(0.005)"/>
<flow id="f_1232"  type="t_2"  begin="32400"  color="green"  from="E12"  to="E53.21"  end="39600"  period="exp(0.001)"/>
<flow id="f_1233"  type="t_2"  begin="32400"  color="green"  from="E13"  to="E53.21"  end="39600"  period="exp(0.0085)"/>
<flow id="f_1234"  type="t_2"  begin="32400"  color="green"  from="E19"  to="E53.21"  end="39600"  period="exp(0.0685)"/>
<flow id="f_1235"  type="t_2"  begin="32400"  color="green"  from="E22"  to="E45"  end="39600"  period="exp(0.02)"/>
<flow id="f_1236"  type="t_2"  begin="32400"  color="green"  from="E7"  to="E45"  end="39600"  period="exp(0.024)"/>
<flow id="f_1237"  type="t_2"  begin="32400"  color="green"  from="E32"  to="E31"  end="39600"  period="exp(0.035)"/>
<flow id="f_1238"  type="t_2"  begin="32400"  color="green"  from="E24"  to="E27"  end="39600"  period="exp(0.035)"/>
<flow id="f_1239"  type="t_2"  begin="32400"  color="green"  from="E30"  to="E28"  end="39600"  period="exp(0.035)"/>
<flow id="f_1240"  type="t_2"  begin="32400"  color="green"  from="-E3"  to="E5"  end="39600"  period="exp(0.005)"/>
<flow id="f_1241"  type="t_2"  begin="32400"  color="green"  from="-E5"  to="E3"  end="39600"  period="exp(0.005)"/>
<flow id="f_1242"  type="t_2"  begin="32400"  color="green"  from="-E43"  to="E40"  end="39600"  period="exp(0.005)"/>
<flow id="f_1243"  type="t_2"  begin="32400"  color="green"  from="-E26"  to="E34"  end="39600"  period="exp(0.005)"/>
<flow id="f_1244"  type="t_2"  begin="32400"  color="green"  from="-E33"  to="E26"  end="39600"  period="exp(0.005)"/>
<flow id="f_75"  type="t_0"  begin="39600"  color="yellow"  from="E12"  to="E53.21"  end="54000"  period="exp(0.0012)"/>
<flow id="f_76"  type="t_0"  begin="39600"  color="yellow"  from="E13"  to="E53.21"  end="54000"  period="exp(0.0102)"/>
<flow id="f_77"  type="t_0"  begin="39600"  color="yellow"  from="E19"  to="E53.21"  end="54000"  period="exp(0.0822)"/>
<flow id="f_78"  type="t_0"  begin="39600"  color="yellow"  from="E22"  to="E45"  end="54000"  period="exp(0.024)"/>
<flow id="f_79"  type="t_0"  begin="39600"  color="yellow"  from="E7"  to="E45"  end="54000"  period="exp(0.0288)"/>
<flow id="f_80"  type="t_0"  begin="39600"  color="yellow"  from="E32"  to="E31"  end="54000"  period="exp(0.042)"/>
<flow id="f_81"  type="t_0"  begin="39600"  color="yellow"  from="E24"  to="E27"  end="54000"  period="exp(0.042)"/>
<flow id="f_82"  type="t_0"  begin="39600"  color="yellow"  from="E30"  to="E28"  end="54000"  period="exp(0.042)"/>
<flow id="f_83"  type="t_0"  begin="39600"  color="yellow"  from="-E3"  to="E5"  end="54000"  period="exp(0.006)"/>
<flow id="f_84"  type="t_0"  begin="39600"  color="yellow"  from="-E5"  to="E3"  end="54000"  period="exp(0.006)"/>
<flow id="f_85"  type="t_0"  begin="39600"  color="yellow"  from="-E43"  to="E40"  end="54000"  period="exp(0.006)"/>
<flow id="f_86"  type="t_0"  begin="39600"  color="yellow"  from="-E26"  to="E34"  end="54000"  period="exp(0.006)"/>
<flow id="f_87"  type="t_0"  begin="39600"  color="yellow"  from="-E33"  to="E26"  end="54000"  period="exp(0.006)"/>
<flow id="f_660"  type="t_1"  begin="39600"  color="blue"  from="E12"  to="E53.21"  end="54000"  period="exp(0.0012)"/>
<flow id="f_661"  type="t_1"  begin="39600"  color="blue"  from="E13"  to="E53.21"  end="54000"  period="exp(0.0102)"/>
<flow id="f_662"  type="t_1"  begin="39600"  color="blue"  from="E19"  to="E53.21"  end="54000"  period="exp(0.0822)"/>
<flow id="f_663"  type="t_1"  begin="39600"  color="blue"  from="E22"  to="E45"  end="54000"  period="exp(0.024)"/>
<flow id="f_664"  type="t_1"  begin="39600"  color="blue"  from="E7"  to="E45"  end="54000"  period="exp(0.0288)"/>
<flow id="f_665"  type="t_1"  begin="39600"  color="blue"  from="E32"  to="E31"  end="54000"  period="exp(0.042)"/>
<flow id="f_666"  type="t_1"  begin="39600"  color="blue"  from="E24"  to="E27"  end="54000"  period="exp(0.042)"/>
<flow id="f_667"  type="t_1"  begin="39600"  color="blue"  from="E30"  to="E28"  end="54000"  period="exp(0.042)"/>
<flow id="f_668"  type="t_1"  begin="39600"  color="blue"  from="-E3"  to="E5"  end="54000"  period="exp(0.006)"/>
<flow id="f_669"  type="t_1"  begin="39600"  color="blue"  from="-E5"  to="E3"  end="54000"  period="exp(0.006)"/>
<flow id="f_670"  type="t_1"  begin="39600"  color="blue"  from="-E43"  to="E40"  end="54000"  period="exp(0.006)"/>
<flow id="f_671"  type="t_1"  begin="39600"  color="blue"  from="-E26"  to="E34"  end="54000"  period="exp(0.006)"/>
<flow id="f_672"  type="t_1"  begin="39600"  color="blue"  from="-E33"  to="E26"  end="54000"  period="exp(0.006)"/>
<flow id="f_1245"  type="t_2"  begin="39600"  color="green"  from="E12"  to="E53.21"  end="54000"  period="exp(0.0012)"/>
<flow id="f_1246"  type="t_2"  begin="39600"  color="green"  from="E13"  to="E53.21"  end="54000"  period="exp(0.0102)"/>
<flow id="f_1247"  type="t_2"  begin="39600"  color="green"  from="E19"  to="E53.21"  end="54000"  period="exp(0.0822)"/>
<flow id="f_1248"  type="t_2"  begin="39600"  color="green"  from="E22"  to="E45"  end="54000"  period="exp(0.024)"/>
<flow id="f_1249"  type="t_2"  begin="39600"  color="green"  from="E7"  to="E45"  end="54000"  period="exp(0.0288)"/>
<flow id="f_1250"  type="t_2"  begin="39600"  color="green"  from="E32"  to="E31"  end="54000"  period="exp(0.042)"/>
<flow id="f_1251"  type="t_2"  begin="39600"  color="green"  from="E24"  to="E27"  end="54000"  period="exp(0.042)"/>
<flow id="f_1252"  type="t_2"  begin="39600"  color="green"  from="E30"  to="E28"  end="54000"  period="exp(0.042)"/>
<flow id="f_1253"  type="t_2"  begin="39600"  color="green"  from="-E3"  to="E5"  end="54000"  period="exp(0.006)"/>
<flow id="f_1254"  type="t_2"  begin="39600"  color="green"  from="-E5"  to="E3"  end="54000"  period="exp(0.006)"/>
<flow id="f_1255"  type="t_2"  begin="39600"  color="green"  from="-E43"  to="E40"  end="54000"  period="exp(0.006)"/>
<flow id="f_1256"  type="t_2"  begin="39600"  color="green"  from="-E26"  to="E34"  end="54000"  period="exp(0.006)"/>
<flow id="f_1257"  type="t_2"  begin="39600"  color="green"  from="-E33"  to="E26"  end="54000"  period="exp(0.006)"/>
<flow id="f_88"  type="t_0"  begin="54000"  color="yellow"  from="E12"  to="E53.21"  end="61200"  period="exp(0.0007)"/>
<flow id="f_89"  type="t_0"  begin="54000"  color="yellow"  from="E13"  to="E53.21"  end="61200"  period="exp(0.0063)"/>
<flow id="f_90"  type="t_0"  begin="54000"  color="yellow"  from="E19"  to="E53.21"  end="61200"  period="exp(0.0476)"/>
<flow id="f_91"  type="t_0"  begin="54000"  color="yellow"  from="E22"  to="E45"  end="61200"  period="exp(0.0147)"/>
<flow id="f_92"  type="t_0"  begin="54000"  color="yellow"  from="E7"  to="E45"  end="61200"  period="exp(0.0511)"/>
<flow id="f_93"  type="t_0"  begin="54000"  color="yellow"  from="E32"  to="E31"  end="61200"  period="exp(0.049)"/>
<flow id="f_94"  type="t_0"  begin="54000"  color="yellow"  from="E24"  to="E27"  end="61200"  period="exp(0.035)"/>
<flow id="f_95"  type="t_0"  begin="54000"  color="yellow"  from="E30"  to="E28"  end="61200"  period="exp(0.056)"/>
<flow id="f_96"  type="t_0"  begin="54000"  color="yellow"  from="-E3"  to="E5"  end="61200"  period="exp(0.007)"/>
<flow id="f_97"  type="t_0"  begin="54000"  color="yellow"  from="-E5"  to="E3"  end="61200"  period="exp(0.007)"/>
<flow id="f_98"  type="t_0"  begin="54000"  color="yellow"  from="-E43"  to="E40"  end="61200"  period="exp(0.007)"/>
<flow id="f_99"  type="t_0"  begin="54000"  color="yellow"  from="-E26"  to="E34"  end="61200"  period="exp(0.007)"/>
<flow id="f_100"  type="t_0"  begin="54000"  color="yellow"  from="-E33"  to="E26"  end="61200"  period="exp(0.007)"/>
<flow id="f_673"  type="t_1"  begin="54000"  color="blue"  from="E12"  to="E53.21"  end="61200"  period="exp(0.0007)"/>
<flow id="f_674"  type="t_1"  begin="54000"  color="blue"  from="E13"  to="E53.21"  end="61200"  period="exp(0.0063)"/>
<flow id="f_675"  type="t_1"  begin="54000"  color="blue"  from="E19"  to="E53.21"  end="61200"  period="exp(0.0476)"/>
<flow id="f_676"  type="t_1"  begin="54000"  color="blue"  from="E22"  to="E45"  end="61200"  period="exp(0.0147)"/>
<flow id="f_677"  type="t_1"  begin="54000"  color="blue"  from="E7"  to="E45"  end="61200"  period="exp(0.0511)"/>
<flow id="f_678"  type="t_1"  begin="54000"  color="blue"  from="E32"  to="E31"  end="61200"  period="exp(0.049)"/>
<flow id="f_679"  type="t_1"  begin="54000"  color="blue"  from="E24"  to="E27"  end="61200"  period="exp(0.035)"/>
<flow id="f_680"  type="t_1"  begin="54000"  color="blue"  from="E30"  to="E28"  end="61200"  period="exp(0.056)"/>
<flow id="f_681"  type="t_1"  begin="54000"  color="blue"  from="-E3"  to="E5"  end="61200"  period="exp(0.007)"/>
<flow id="f_682"  type="t_1"  begin="54000"  color="blue"  from="-E5"  to="E3"  end="61200"  period="exp(0.007)"/>
<flow id="f_683"  type="t_1"  begin="54000"  color="blue"  from="-E43"  to="E40"  end="61200"  period="exp(0.007)"/>
<flow id="f_684"  type="t_1"  begin="54000"  color="blue"  from="-E26"  to="E34"  end="61200"  period="exp(0.007)"/>
<flow id="f_685"  type="t_1"  begin="54000"  color="blue"  from="-E33"  to="E26"  end="61200"  period="exp(0.007)"/>
<flow id="f_1258"  type="t_2"  begin="54000"  color="green"  from="E12"  to="E53.21"  end="61200"  period="exp(0.0007)"/>
<flow id="f_1259"  type="t_2"  begin="54000"  color="green"  from="E13"  to="E53.21"  end="61200"  period="exp(0.0063)"/>
<flow id="f_1260"  type="t_2"  begin="54000"  color="green"  from="E19"  to="E53.21"  end="61200"  period="exp(0.0476)"/>
<flow id="f_1261"  type="t_2"  begin="54000"  color="green"  from="E22"  to="E45"  end="61200"  period="exp(0.0147)"/>
<flow id="f_1262"  type="t_2"  begin="54000"  color="green"  from="E7"  to="E45"  end="61200"  period="exp(0.0511)"/>
<flow id="f_1263"  type="t_2"  begin="54000"  color="green"  from="E32"  to="E31"  end="61200"  period="exp(0.049)"/>
<flow id="f_1264"  type="t_2"  begin="54000"  color="green"  from="E24"  to="E27"  end="61200"  period="exp(0.035)"/>
<flow id="f_1265"  type="t_2"  begin="54000"  color="green"  from="E30"  to="E28"  end="61200"  period="exp(0.056)"/>
<flow id="f_1266"  type="t_2"  begin="54000"  color="green"  from="-E3"  to="E5"  end="61200"  period="exp(0.007)"/>
<flow id="f_1267"  type="t_2"  begin="54000"  color="green"  from="-E5"  to="E3"  end="61200"  period="exp(0.007)"/>
<flow id="f_1268"  type="t_2"  begin="54000"  color="green"  from="-E43"  to="E40"  end="61200"  period="exp(0.007)"/>
<flow id="f_1269"  type="t_2"  begin="54000"  color="green"  from="-E26"  to="E34"  end="61200"  period="exp(0.007)"/>
<flow id="f_1270"  type="t_2"  begin="54000"  color="green"  from="-E33"  to="E26"  end="61200"  period="exp(0.007)"/>
<flow id="f_101"  type="t_0"  begin="61200"  color="yellow"  from="E12"  to="E53.21"  end="68400"  period="exp(0.001)"/>
<flow id="f_102"  type="t_0"  begin="61200"  color="yellow"  from="E13"  to="E53.21"  end="68400"  period="exp(0.009)"/>
<flow id="f_103"  type="t_0"  begin="61200"  color="yellow"  from="E19"  to="E53.21"  end="68400"  period="exp(0.068)"/>
<flow id="f_104"  type="t_0"  begin="61200"  color="yellow"  from="E22"  to="E45"  end="68400"  period="exp(0.021)"/>
<flow id="f_105"  type="t_0"  begin="61200"  color="yellow"  from="E7"  to="E45"  end="68400"  period="exp(0.073)"/>
<flow id="f_106"  type="t_0"  begin="61200"  color="yellow"  from="E32"  to="E31"  end="68400"  period="exp(0.07)"/>
<flow id="f_107"  type="t_0"  begin="61200"  color="yellow"  from="E24"  to="E27"  end="68400"  period="exp(0.05)"/>
<flow id="f_108"  type="t_0"  begin="61200"  color="yellow"  from="E30"  to="E28"  end="68400"  period="exp(0.08)"/>
<flow id="f_109"  type="t_0"  begin="61200"  color="yellow"  from="-E3"  to="E5"  end="68400"  period="exp(0.01)"/>
<flow id="f_110"  type="t_0"  begin="61200"  color="yellow"  from="-E5"  to="E3"  end="68400"  period="exp(0.01)"/>
<flow id="f_111"  type="t_0"  begin="61200"  color="yellow"  from="-E43"  to="E40"  end="68400"  period="exp(0.01)"/>
<flow id="f_112"  type="t_0"  begin="61200"  color="yellow"  from="-E26"  to="E34"  end="68400"  period="exp(0.01)"/>
<flow id="f_113"  type="t_0"  begin="61200"  color="yellow"  from="-E33"  to="E26"  end="68400"  period="exp(0.01)"/>
<flow id="f_686"  type="t_1"  begin="61200"  color="blue"  from="E12"  to="E53.21"  end="68400"  period="exp(0.001)"/>
<flow id="f_687"  type="t_1"  begin="61200"  color="blue"  from="E13"  to="E53.21"  end="68400"  period="exp(0.009)"/>